version 3
run Comunic-0-20240519-23:49:06-21884
attr configname Comunic
attr datetime 20240519-23:49:06
attr datetimef 20240519-234906
attr experiment Comunic
attr inifile omnetpp.ini
attr iterationvars "$pathlosstype=\"FreeSpacePathLoss\""
attr iterationvarsd pathlosstype=FreeSpacePathLoss
attr iterationvarsf pathlosstype=FreeSpacePathLoss-
attr measurement "$pathlosstype=\"FreeSpacePathLoss\""
attr network Network
attr processid 21884
attr repetition 0
attr replication #0
attr resultdir results
attr runnumber 0
attr seedset 0
itervar pathlosstype "\"FreeSpacePathLoss\""
config image-path ../../omnetpp-6.0.3/samples/inet4.5/images
config network Network
config **.bitrate 1Mbps
config *.*.wlan[*].mac.dcf.channelAccess.contention.initialChannelBusy false
config **.configurator.config "xmldoc(\"configurator.xml\")"
config *.source.app[0].typename UdpSink
config *.source.app[*].localPort 1000
config *.*.numApps 1
config *.*.app[0].typename UdpBasicApp
config *.*.app[*].destAddresses "\"source\""
config *.*.app[*].destPort 1000
config *.*.app[*].localPort 1000
config *.*.app[*].messageLength 1000Byte
config *.*.app[*].sendInterval 100ms
config *.*.app[*].startTime 0ms
config *.destination.mobility.typename StationaryMobility
config *.destination.mobility.mobilityStateChanged.vector-recording true
config *.destination.mobility.record.vector-recording true
config *.destination.mobility.initialX 100m
config *.destination.mobility.initialY 100m
config *.destination.mobility.initialZ 0.15m
config *.source.mobility.typename LinearMobility
config *.source.mobility.initialX 100m
config *.source.mobility.initialY 100m
config *.source.mobility.initialZ 5m
config *.source.mobility.initialMovementHeading 0deg
config *.source.mobility.initialMovementElevation 0deg
config *.source.mobility.speed 1mps
config *.*.wlan[*].radio.transmitter.power 6dBm
config *.*.wlan[*].radio.centerFrequency 2.400937GHz
config *.*.wlan[*].radio.*.sensitivity -85dBm
config *.*.wlan[*].radio.antenna.typename DipoleAntenna
config *.*.wlan[*].radio.antenna.length 0.05m
config *.*.wlan[*].radio.antenna.maxGain "1.97 dB"
config *.*.wlan[*].radio.antenna.minGain "-90 dB"
config *.*.wlan[*].radio.antenna.lambda 0.125437811m
config *.*.wlan[*].radio.antenna.wireAxis "\"x\""
config *.radioMedium.backgroundNoise.typename IsotropicScalarBackgroundNoise
config *.radioMedium.backgroundNoise.power "-150 dBm"
config *.radioMedium.pathLoss.typename FreeSpacePathLoss
config *.radioMedium.recordCommunicationLog true
config *.visualizer.*.radioVisualizer.displayRadios true
config *.visualizer.*.radioVisualizer.displayAntennaLobes true
config *.visualizer.*.mediumVisualizer.signalPropagationAnimationSpeed 0.000001
config *.visualizer.*.mediumVisualizer.signalTransmissionAnimationSpeed 0.0001
config *.visualizer.*.mediumVisualizer.displaySignals true
config *.visualizer.*.mediumVisualizer.displaySignalDepartures true
config *.visualizer.*.mediumVisualizer.displaySignalArrivals true
config record-eventlog true
config **.arp.typename GlobalArp
config *.visualizer.osgVisualizer.typename IntegratedOsgVisualizer
config *.visualizer.osgVisualizer.sceneVisualizer.typename SceneOsgEarthVisualizer
config *.visualizer.osgVisualizer.sceneVisualizer.mapFile "\"map.earth\""
config *.visualizer.osgVisualizer.sceneVisualizer.sceneImageSize 10000m
config *.visualizer.osgVisualizer.sceneVisualizer.axisLength 500m
config *.visualizer.osgVisualizer.sceneVisualizer.sceneMinX -200m
config *.visualizer.osgVisualizer.sceneVisualizer.sceneMinY -200m
config *.visualizer.osgVisualizer.sceneVisualizer.sceneMinZ 0m
config *.visualizer.osgVisualizer.sceneVisualizer.sceneMaxX 5000m
config *.visualizer.osgVisualizer.sceneVisualizer.sceneMaxY 5000m
config *.visualizer.osgVisualizer.sceneVisualizer.sceneMaxZ 5000m
config *.visualizer.osgVisualizer.networkNodeVisualizer.displayModuleName true
config **.constraintAreaMinX -5000m
config **.constraintAreaMinY -5000m
config **.constraintAreaMinZ -100m
config **.constraintAreaMaxX 5000m
config **.constraintAreaMaxY 5000m
config **.constraintAreaMaxZ 5000m
config *.coordinateSystem.sceneLongitude -43.270694deg
config *.coordinateSystem.sceneLatitude -22.825083deg
config *.coordinateSystem.sceneHeading 90deg
config *.physicalEnvironment.ground.typename FlatGround
config *.source.osgModel "\"3d/drone.ive.10.scale.0,0,90.rot\""
config **.mobility.initFromDisplayString false

vector 0 Network.source.wlan[0].mac.dcf frameSequenceActive:vector ETV
attr autoWarmupFilter false
attr interpolationmode sample-hold
attr recordingmode vector
attr source warmup(count(frameSequenceStarted)-count(frameSequenceFinished))
attr title "frame sequence active"
vector 1 Network.source.wlan[0].mac.dcf.channelAccess.pendingQueue queueLength:vector ETV
attr autoWarmupFilter false
attr interpolationmode sample-hold
attr recordingmode vector
attr source "warmup(atomic(constant0(packetPushEnded) + count(packetPushStarted) - count(packetPulled) - count(packetRemoved) - count(packetDropped)))"
attr title "queue length"
attr unit pk
vector 2 Network.source.wlan[0].mac.dcf.channelAccess.pendingQueue queueBitLength:vector ETV
attr autoWarmupFilter false
attr interpolationmode sample-hold
attr recordingmode vector
attr source "warmup(atomic(constant0(packetPushEnded) + sum(packetLength(packetPushStarted)) - sum(packetLength(packetPulled)) - sum(packetLength(packetRemoved)) - sum(packetLength(packetDropped))))"
attr title "queue bit length"
attr unit b
vector 3 Network.source.wlan[0].mac.dcf.channelAccess.inProgressFrames queueLength:vector ETV
attr autoWarmupFilter false
attr interpolationmode sample-hold
attr recordingmode vector
attr source "warmup(count(packetEnqueued) - count(packetDequeued))"
attr title "queue length"
vector 4 Network.source.wlan[0].mac.dcf.channelAccess.contention backoffActive:vector ETV
attr autoWarmupFilter false
attr interpolationmode sample-hold
attr recordingmode vector
attr source warmup(count(backoffStarted)-count(backoffStopped))
attr title "backoff active"
vector 5 Network.source.udp passedUpPk:vector(count) ETV
attr interpolationmode none
attr recordingmode vector(count)
attr source packetSentToUpper
attr title "packets passed up, count"
vector 6 Network.source.udp droppedPkWrongPort:vector(count) ETV
attr interpolationmode none
attr recordingmode vector(count)
attr source packetDropReasonIsNoPortFound(packetDropped)
attr title "packets dropped (wrong port), count"
vector 7 Network.source.udp droppedPkBadChecksum:vector(count) ETV
attr interpolationmode none
attr recordingmode vector(count)
attr source packetDropReasonIsIncorrectlyReceived(packetDropped)
attr title "packets dropped (checksum error), count"
vector 8 Network.destination.wlan[0].mac.dcf frameSequenceActive:vector ETV
attr autoWarmupFilter false
attr interpolationmode sample-hold
attr recordingmode vector
attr source warmup(count(frameSequenceStarted)-count(frameSequenceFinished))
attr title "frame sequence active"
vector 9 Network.destination.wlan[0].mac.dcf.channelAccess.pendingQueue queueLength:vector ETV
attr autoWarmupFilter false
attr interpolationmode sample-hold
attr recordingmode vector
attr source "warmup(atomic(constant0(packetPushEnded) + count(packetPushStarted) - count(packetPulled) - count(packetRemoved) - count(packetDropped)))"
attr title "queue length"
attr unit pk
vector 10 Network.destination.wlan[0].mac.dcf.channelAccess.pendingQueue queueBitLength:vector ETV
attr autoWarmupFilter false
attr interpolationmode sample-hold
attr recordingmode vector
attr source "warmup(atomic(constant0(packetPushEnded) + sum(packetLength(packetPushStarted)) - sum(packetLength(packetPulled)) - sum(packetLength(packetRemoved)) - sum(packetLength(packetDropped))))"
attr title "queue bit length"
attr unit b
vector 11 Network.destination.wlan[0].mac.dcf.channelAccess.inProgressFrames queueLength:vector ETV
attr autoWarmupFilter false
attr interpolationmode sample-hold
attr recordingmode vector
attr source "warmup(count(packetEnqueued) - count(packetDequeued))"
attr title "queue length"
vector 12 Network.destination.wlan[0].mac.dcf.channelAccess.contention backoffActive:vector ETV
attr autoWarmupFilter false
attr interpolationmode sample-hold
attr recordingmode vector
attr source warmup(count(backoffStarted)-count(backoffStopped))
attr title "backoff active"
vector 13 Network.destination.udp passedUpPk:vector(count) ETV
attr interpolationmode none
attr recordingmode vector(count)
attr source packetSentToUpper
attr title "packets passed up, count"
vector 14 Network.destination.udp droppedPkWrongPort:vector(count) ETV
attr interpolationmode none
attr recordingmode vector(count)
attr source packetDropReasonIsNoPortFound(packetDropped)
attr title "packets dropped (wrong port), count"
vector 15 Network.destination.udp droppedPkBadChecksum:vector(count) ETV
attr interpolationmode none
attr recordingmode vector(count)
attr source packetDropReasonIsIncorrectlyReceived(packetDropped)
attr title "packets dropped (checksum error), count"
vector 16 Network.source.wlan[0].radio radioMode:vector ETV
attr interpolationmode sample-hold
attr recordingmode vector
attr source radioModeChanged
attr title "Radio mode"
vector 17 Network.source.wlan[0].radio radioChannel:vector ETV
attr interpolationmode sample-hold
attr recordingmode vector
attr source radioChannelChanged
attr title "Radio channel"
vector 18 Network.destination.wlan[0].radio radioMode:vector ETV
attr interpolationmode sample-hold
attr recordingmode vector
attr source radioModeChanged
attr title "Radio mode"
vector 19 Network.destination.wlan[0].radio radioChannel:vector ETV
attr interpolationmode sample-hold
attr recordingmode vector
attr source radioChannelChanged
attr title "Radio channel"
vector 20 Network.source.wlan[0].radio receptionState:vector ETV
attr interpolationmode sample-hold
attr recordingmode vector
attr source receptionStateChanged
attr title "Radio reception state"
vector 21 Network.source.wlan[0].mac.dcf.channelAccess.contention stateChanged:vector ETV
attr enum IDLE,DEFER,IFS_AND_BACKOFF
attr interpolationmode none
attr recordingmode vector
attr title "contention state changed"
attr type enum
vector 22 Network.destination.wlan[0].radio receptionState:vector ETV
attr interpolationmode sample-hold
attr recordingmode vector
attr source receptionStateChanged
attr title "Radio reception state"
vector 23 Network.destination.wlan[0].mac.dcf.channelAccess.contention stateChanged:vector ETV
attr enum IDLE,DEFER,IFS_AND_BACKOFF
attr interpolationmode none
attr recordingmode vector
attr title "contention state changed"
attr type enum
vector 24 Network.source.wlan[0].mac.dcf.recoveryProcedure contentionWindowChanged:vector ETV
attr interpolationmode sample-hold
attr recordingmode vector
attr title "contention window"
vector 25 Network.destination.wlan[0].mac.dcf.recoveryProcedure contentionWindowChanged:vector ETV
attr interpolationmode sample-hold
attr recordingmode vector
attr title "contention window"
vector 26 Network.destination.app[0] packetSent:vector(packetBytes) ETV
attr interpolationmode none
attr recordingmode vector(packetBytes)
attr source packetSent
attr title "packets sent, packetBytes"
vector 27 Network.destination.udp packetSent:vector(packetBytes) ETV
attr interpolationmode none
attr recordingmode vector(packetBytes)
attr source packetSent
attr title "packets sent, packetBytes"
vector 28 Network.destination.wlan[0].mac packetReceivedFromUpper:vector(packetBytes) ETV
attr interpolationmode none
attr recordingmode vector(packetBytes)
attr title "packets received from upper layer, packetBytes"
vector 29 Network.destination.wlan[0].mac.dcf.channelAccess.pendingQueue incomingPacketLengths:vector ETV
attr interpolationmode none
attr recordingmode vector
attr source packetLength(packetPushStarted)
attr title "incoming packet lengths"
attr unit b
vector 30 Network.destination.wlan[0].mac.dcf.channelAccess.contention backoffPeriodGenerated:vector ETV
attr interpolationmode none
attr recordingmode vector
attr title "backoff periods"
vector 31 Network.destination.wlan[0].mac.dcf.channelAccess.pendingQueue queueingTime:vector ETV
attr interpolationmode none
attr recordingmode vector
attr source queueingTime(packetPulled)
attr title "queueing times"
attr unit s
vector 32 Network.destination.wlan[0].mac.dcf.channelAccess.pendingQueue outgoingPacketLengths:vector ETV
attr interpolationmode none
attr recordingmode vector
attr source packetLength(packetPulled)
attr title "outgoing packet lengths"
attr unit b
vector 33 Network.destination.wlan[0].mac.dcf datarateSelected:vector ETV
attr interpolationmode none
attr recordingmode vector
attr title "datarates selected"
vector 34 Network.destination.wlan[0].mac packetSentToLower:vector(packetBytes) ETV
attr interpolationmode none
attr recordingmode vector(packetBytes)
attr title "packets sent to lower layer, packetBytes"
vector 35 Network.destination.wlan[0].radio transmissionState:vector ETV
attr interpolationmode sample-hold
attr recordingmode vector
attr source transmissionStateChanged
attr title "Radio transmission state"
vector 36 Network receptionPower:vector ETV
attr recordingmode vector
attr source receptionMinSignalPower(radioMedium.signalArrivalStarted)
vector 37 Network.destination.wlan[0].mac.dcf packetSentToPeer:vector(packetBytes) ETV
attr interpolationmode none
attr recordingmode vector(packetBytes)
attr title "packets sent, packetBytes"
vector 38 Network.destination.wlan[0].mac.dcf packetSentToPeerUnicast:vector(packetBytes) ETV
attr interpolationmode none
attr recordingmode vector(packetBytes)
attr source ieee80211Unicast(packetSentToPeer)
attr title "packets sent: unicast, packetBytes"
vector 39 Network.destination.wlan[0].mac.dcf packetSentToPeerWithoutRetry:vector(packetBytes) ETV
attr interpolationmode none
attr recordingmode vector(packetBytes)
attr source ieee80211NotRetry(packetSentToPeer)
attr title "packets sent: without retry, packetBytes"
vector 40 Network.destination.wlan[0].mac.rx nav:vector ETV
attr interpolationmode linear
attr recordingmode vector
attr source navChanged
attr title "network allocation vector"
vector 41 Network.source.wlan[0].mac packetReceivedFromLower:vector(packetBytes) ETV
attr interpolationmode none
attr recordingmode vector(packetBytes)
attr title "packets received from lower layer, packetBytes"
vector 42 Network.source.wlan[0].mac.dcf packetReceivedFromPeer:vector(packetBytes) ETV
attr interpolationmode none
attr recordingmode vector(packetBytes)
attr title "packets received, packetBytes"
vector 43 Network.source.wlan[0].mac.dcf packetReceivedFromPeerUnicast:vector(packetBytes) ETV
attr interpolationmode none
attr recordingmode vector(packetBytes)
attr source ieee80211Unicast(packetReceivedFromPeer)
attr title "packets received: unicast, packetBytes"
vector 44 Network.source.wlan[0].mac.dcf packetReceivedFromPeerWithoutRetry:vector(packetBytes) ETV
attr interpolationmode none
attr recordingmode vector(packetBytes)
attr source ieee80211NotRetry(packetReceivedFromPeer)
attr title "packets received: without retry, packetBytes"
vector 45 Network.source.wlan[0].mac.dcf datarateSelected:vector ETV
attr interpolationmode none
attr recordingmode vector
attr title "datarates selected"
vector 46 Network.source.wlan[0].mac packetSentToUpper:vector(packetBytes) ETV
attr interpolationmode none
attr recordingmode vector(packetBytes)
attr title "packets sent to upper layer, packetBytes"
vector 47 Network.source.udp packetReceived:vector(packetBytes) ETV
attr interpolationmode none
attr recordingmode vector(packetBytes)
attr source packetReceived
attr title "packets received, packetBytes"
vector 48 Network.source.app[0] packetReceived:vector(packetBytes) ETV
attr interpolationmode none
attr recordingmode vector(packetBytes)
attr source packetReceived
attr title "packets received, packetBytes"
vector 49 Network.source.app[0] endToEndDelay:vector ETV
attr interpolationmode none
attr recordingmode vector
attr source dataAge(packetReceived)
attr title "end-to-end delay"
attr unit s
vector 50 Network.source.app[0] rcvdPkSeqNo:vector ETV
attr interpolationmode none
attr recordingmode vector
attr source appPkSeqNo(packetReceived)
attr title "received packet sequence number"
vector 51 Network.source.wlan[0].mac packetSentToLower:vector(packetBytes) ETV
attr interpolationmode none
attr recordingmode vector(packetBytes)
attr title "packets sent to lower layer, packetBytes"
vector 52 Network.source.wlan[0].radio transmissionState:vector ETV
attr interpolationmode sample-hold
attr recordingmode vector
attr source transmissionStateChanged
attr title "Radio transmission state"
vector 53 Network.source.wlan[0].mac.dcf packetSentToPeer:vector(packetBytes) ETV
attr interpolationmode none
attr recordingmode vector(packetBytes)
attr title "packets sent, packetBytes"
vector 54 Network.source.wlan[0].mac.dcf packetSentToPeerUnicast:vector(packetBytes) ETV
attr interpolationmode none
attr recordingmode vector(packetBytes)
attr source ieee80211Unicast(packetSentToPeer)
attr title "packets sent: unicast, packetBytes"
vector 55 Network.source.wlan[0].mac.dcf packetSentToPeerWithoutRetry:vector(packetBytes) ETV
attr interpolationmode none
attr recordingmode vector(packetBytes)
attr source ieee80211NotRetry(packetSentToPeer)
attr title "packets sent: without retry, packetBytes"
vector 56 Network.destination.wlan[0].mac packetReceivedFromLower:vector(packetBytes) ETV
attr interpolationmode none
attr recordingmode vector(packetBytes)
attr title "packets received from lower layer, packetBytes"
vector 57 Network.destination.wlan[0].mac.dcf packetReceivedFromPeer:vector(packetBytes) ETV
attr interpolationmode none
attr recordingmode vector(packetBytes)
attr title "packets received, packetBytes"
vector 58 Network.destination.wlan[0].mac.dcf packetReceivedFromPeerUnicast:vector(packetBytes) ETV
attr interpolationmode none
attr recordingmode vector(packetBytes)
attr source ieee80211Unicast(packetReceivedFromPeer)
attr title "packets received: unicast, packetBytes"
vector 59 Network.destination.wlan[0].mac.dcf packetReceivedFromPeerWithoutRetry:vector(packetBytes) ETV
attr interpolationmode none
attr recordingmode vector(packetBytes)
attr source ieee80211NotRetry(packetReceivedFromPeer)
attr title "packets received: without retry, packetBytes"
vector 60 Network.destination.wlan[0].mac.dcf.channelAccess.inProgressFrames queueingTime:vector ETV
attr interpolationmode none
attr recordingmode vector
attr source queueingTime(packetDequeued)
attr title "queueing times"
vector 61 Network.destination.wlan[0].mac.dcf.channelAccess.pendingQueue incomingDataRate:vector ETV
attr interpolationmode linear
attr recordingmode vector
attr source throughput(packetPushStarted)
attr title "incoming datarate"
attr unit bps
vector 62 Network.destination.wlan[0].mac.dcf.channelAccess.pendingQueue outgoingDataRate:vector ETV
attr interpolationmode linear
attr recordingmode vector
attr source throughput(packetPulled)
attr title "outgoing datarate"
attr unit bps
vector 63 Network.source.app[0] throughput:vector ETV
attr recordingmode vector
attr source throughput(packetReceived)
attr title throughput
attr unit bps
vector 64 Network.destination.wlan[0].mac.dcf packetSentToPeerWithRetry:vector(packetBytes) ETV
attr interpolationmode none
attr recordingmode vector(packetBytes)
attr source ieee80211Retry(packetSentToPeer)
attr title "packets sent: with retry, packetBytes"
vector 65 Network.destination.wlan[0].mac.dcf packetDrop:vector(packetBytes) ETV
attr interpolationmode none
attr recordingmode vector(packetBytes)
attr source packetDropped
attr title "packet drops, packetBytes"
vector 66 Network.destination.wlan[0].mac.dcf packetDropRetryLimitReached:vector(packetBytes) ETV
attr interpolationmode none
attr recordingmode vector(packetBytes)
attr source packetDropReasonIsRetryLimitReached(packetDropped)
attr title "packet drops: retry limit reached, packetBytes"
vector 67 Network.destination.wlan[0].mac packetDrop:vector(packetBytes) ETV
attr interpolationmode none
attr recordingmode vector(packetBytes)
attr source packetDropped
attr title "packet drops, packetBytes"
vector 68 Network.destination.wlan[0].mac packetDropRetryLimitReached:vector(packetBytes) ETV
attr interpolationmode none
attr recordingmode vector(packetBytes)
attr source packetDropReasonIsRetryLimitReached(packetDropped)
attr title "packet drops: retry limit reached, packetBytes"
vector 69 Network.destination.wlan[0].mac.dcf.channelAccess.pendingQueue droppedPacketLengthsQueueOverflow:vector ETV
attr interpolationmode none
attr recordingmode vector
attr source packetLength(packetDropReasonIsQueueOverflow(packetDropped))
attr title "dropped packet lengths: queue overflow"
attr unit b
vector 70 Network.destination.wlan[0].mac.dcf packetDropQueueOverflow:vector(packetBytes) ETV
attr interpolationmode none
attr recordingmode vector(packetBytes)
attr source packetDropReasonIsQueueOverflow(packetDropped)
attr title "packet drops: queue overflow, packetBytes"
vector 71 Network.destination.wlan[0].mac packetDropQueueOverflow:vector(packetBytes) ETV
attr interpolationmode none
attr recordingmode vector(packetBytes)
attr source packetDropReasonIsQueueOverflow(packetDropped)
attr title "packet drops: queue overflow, packetBytes"
0	0	0	0
0	0	0	0
1	0	0	0
1	0	0	0
1	0	0	0
1	0	0	0
1	0	0	0
2	0	0	0
2	0	0	0
2	0	0	0
2	0	0	0
2	0	0	0
3	0	0	0
3	0	0	0
4	0	0	0
4	0	0	0
5	0	0	0
5	21	0.008704016178	1
5	52	0.108704016181	2
5	83	0.208704016192	3
5	114	0.308704016209	4
5	145	0.408704016233	5
5	176	0.508704016264	6
5	207	0.608704016301	7
5	238	0.708704016345	8
5	269	0.808704016396	9
5	300	0.908704016454	10
5	331	1.008704016518	11
5	362	1.108704016589	12
5	393	1.208704016666	13
5	424	1.308704016749	14
5	455	1.408704016838	15
5	486	1.508704016934	16
5	517	1.608704017035	17
5	548	1.708704017143	18
5	579	1.808704017256	19
5	610	1.908704017375	20
5	641	2.008704017499	21
5	672	2.108704017629	22
5	703	2.208704017764	23
5	734	2.308704017905	24
5	765	2.40870401805	25
5	796	2.508704018201	26
5	827	2.608704018356	27
5	858	2.708704018516	28
5	889	2.80870401868	29
5	920	2.908704018849	30
5	951	3.008704019023	31
5	982	3.1087040192	32
5	1013	3.208704019382	33
5	1044	3.308704019568	34
5	1075	3.408704019757	35
5	1106	3.508704019951	36
5	1137	3.608704020148	37
5	1168	3.708704020348	38
5	1199	3.808704020552	39
5	1230	3.90870402076	40
5	1261	4.00870402097	41
5	1292	4.108704021184	42
5	1323	4.208704021401	43
5	1354	4.308704021621	44
5	1385	4.408704021843	45
5	1416	4.508704022069	46
5	1447	4.608704022297	47
5	1478	4.708704022528	48
5	1509	4.808704022761	49
5	1540	4.908704022997	50
5	1571	5.008704023235	51
5	1602	5.108704023476	52
5	1633	5.208704023719	53
5	1664	5.308704023964	54
5	1695	5.408704024211	55
5	1726	5.50870402446	56
5	1757	5.608704024711	57
5	1788	5.708704024964	58
5	1819	5.808704025219	59
5	1850	5.908704025476	60
5	1881	6.008704025735	61
5	1912	6.108704025995	62
5	1943	6.208704026257	63
5	1974	6.30870402652	64
5	2005	6.408704026786	65
5	2036	6.508704027052	66
5	2067	6.60870402732	67
5	2098	6.70870402759	68
5	2129	6.808704027861	69
5	2160	6.908704028133	70
5	2191	7.008704028406	71
5	2222	7.108704028681	72
5	2253	7.208704028957	73
5	2284	7.308704029234	74
5	2315	7.408704029513	75
5	2346	7.508704029792	76
5	2377	7.608704030073	77
5	2408	7.708704030355	78
5	2439	7.808704030638	79
5	2470	7.908704030921	80
5	2501	8.008704031206	81
5	2532	8.108704031492	82
5	2563	8.208704031778	83
5	2594	8.308704032066	84
5	2625	8.408704032354	85
5	2656	8.508704032644	86
5	2687	8.608704032934	87
5	2718	8.708704033225	88
5	2749	8.808704033517	89
5	2780	8.908704033809	90
5	2811	9.008704034102	91
5	2842	9.108704034396	92
5	2873	9.208704034691	93
5	2904	9.308704034986	94
5	2935	9.408704035283	95
5	2966	9.508704035579	96
5	2997	9.608704035877	97
5	3028	9.708704036175	98
5	3059	9.808704036473	99
5	3090	9.908704036773	100
5	3121	10.008704037073	101
5	3152	10.108704037373	102
5	3183	10.208704037674	103
5	3214	10.308704037975	104
5	3245	10.408704038277	105
5	3276	10.50870403858	106
5	3307	10.608704038883	107
5	3338	10.708704039187	108
5	3369	10.808704039491	109
5	3400	10.908704039795	110
5	3431	11.0087040401	111
5	3462	11.108704040406	112
5	3493	11.208704040712	113
5	3524	11.308704041018	114
5	3555	11.408704041325	115
5	3586	11.508704041632	116
5	3617	11.608704041939	117
5	3648	11.708704042247	118
5	3679	11.808704042556	119
5	3710	11.908704042864	120
5	3741	12.008704043173	121
5	3772	12.108704043483	122
5	3803	12.208704043793	123
5	3834	12.308704044103	124
5	3865	12.408704044413	125
5	3896	12.508704044724	126
5	3927	12.608704045035	127
5	3958	12.708704045347	128
5	3989	12.808704045658	129
5	4020	12.90870404597	130
5	4051	13.008704046283	131
5	4082	13.108704046596	132
5	4113	13.208704046908	133
5	4144	13.308704047222	134
5	4175	13.408704047535	135
5	4206	13.508704047849	136
5	4237	13.608704048163	137
5	4268	13.708704048477	138
5	4299	13.808704048792	139
5	4330	13.908704049107	140
5	4361	14.008704049422	141
5	4392	14.108704049737	142
5	4423	14.208704050053	143
5	4454	14.308704050368	144
5	4485	14.408704050684	145
5	4516	14.508704051001	146
5	4547	14.608704051317	147
5	4578	14.708704051634	148
5	4609	14.808704051951	149
5	4640	14.908704052268	150
5	4671	15.008704052585	151
5	4702	15.108704052903	152
5	4733	15.20870405322	153
5	4764	15.308704053538	154
5	4795	15.408704053856	155
5	4826	15.508704054174	156
5	4857	15.608704054493	157
5	4888	15.708704054811	158
5	4919	15.80870405513	159
5	4950	15.908704055449	160
5	4981	16.008704055768	161
5	5012	16.108704056088	162
5	5043	16.208704056407	163
5	5074	16.308704056727	164
5	5105	16.408704057047	165
5	5136	16.508704057366	166
5	5167	16.608704057687	167
5	5198	16.708704058007	168
5	5229	16.808704058327	169
5	5260	16.908704058648	170
5	5291	17.008704058968	171
5	5322	17.108704059289	172
5	5353	17.20870405961	173
5	5384	17.308704059931	174
5	5415	17.408704060253	175
5	5446	17.508704060574	176
5	5477	17.608704060896	177
5	5508	17.708704061217	178
5	5539	17.808704061539	179
5	5570	17.908704061861	180
5	5601	18.008704062183	181
5	5632	18.108704062505	182
5	5663	18.208704062827	183
5	5694	18.30870406315	184
5	5725	18.408704063472	185
5	5756	18.508704063795	186
5	5787	18.608704064117	187
5	5818	18.70870406444	188
5	5849	18.808704064763	189
5	5880	18.908704065086	190
5	5911	19.008704065409	191
5	5942	19.108704065733	192
5	5973	19.208704066056	193
5	6004	19.308704066379	194
5	6035	19.408704066703	195
5	6066	19.508704067027	196
5	6097	19.60870406735	197
5	6128	19.708704067674	198
5	6159	19.808704067998	199
5	6190	19.908704068322	200
5	6221	20.008704068646	201
5	6252	20.108704068971	202
5	6283	20.208704069295	203
5	6314	20.308704069619	204
5	6345	20.408704069944	205
5	6376	20.508704070268	206
5	6407	20.608704070593	207
5	6438	20.708704070918	208
5	6469	20.808704071242	209
5	6500	20.908704071567	210
5	6531	21.008704071892	211
5	6562	21.108704072217	212
5	6593	21.208704072543	213
5	6624	21.308704072868	214
5	6655	21.408704073193	215
5	6686	21.508704073518	216
5	6717	21.608704073844	217
5	6748	21.708704074169	218
5	6779	21.808704074495	219
5	6810	21.90870407482	220
5	6841	22.008704075146	221
5	6872	22.108704075472	222
5	6903	22.208704075798	223
5	6934	22.308704076124	224
5	6965	22.40870407645	225
5	6996	22.508704076776	226
5	7027	22.608704077102	227
6	0	0	0
7	0	0	0
8	0	0	0
8	0	0	0
8	11	0	1
8	32	0.009018032356	0
8	42	0.1	1
8	63	0.109018032363	0
8	73	0.2	1
8	94	0.209018032385	0
8	104	0.3	1
8	125	0.30901803242	0
8	135	0.4	1
8	156	0.409018032468	0
8	166	0.5	1
8	187	0.509018032531	0
8	197	0.6	1
8	218	0.609018032606	0
8	228	0.7	1
8	249	0.709018032695	0
8	259	0.8	1
8	280	0.809018032797	0
8	290	0.9	1
8	311	0.909018032913	0
8	321	1	1
8	342	1.009018033042	0
8	352	1.1	1
8	373	1.109018033184	0
8	383	1.2	1
8	404	1.209018033339	0
8	414	1.3	1
8	435	1.309018033505	0
8	445	1.4	1
8	466	1.409018033684	0
8	476	1.5	1
8	497	1.509018033877	0
8	507	1.6	1
8	528	1.60901803408	0
8	538	1.7	1
8	559	1.709018034296	0
8	569	1.8	1
8	590	1.809018034522	0
8	600	1.9	1
8	621	1.909018034761	0
8	631	2	1
8	652	2.00901803501	0
8	662	2.1	1
8	683	2.10901803527	0
8	693	2.2	1
8	714	2.20901803554	0
8	724	2.3	1
8	745	2.309018035822	0
8	755	2.4	1
8	776	2.409018036113	0
8	786	2.5	1
8	807	2.509018036415	0
8	817	2.6	1
8	838	2.609018036726	0
8	848	2.7	1
8	869	2.709018037046	0
8	879	2.8	1
8	900	2.809018037375	0
8	910	2.9	1
8	931	2.909018037713	0
8	941	3	1
8	962	3.009018038061	0
8	972	3.1	1
8	993	3.109018038416	0
8	1003	3.2	1
8	1024	3.20901803878	0
8	1034	3.3	1
8	1055	3.309018039152	0
8	1065	3.4	1
8	1086	3.409018039531	0
8	1096	3.5	1
8	1117	3.509018039919	0
8	1127	3.6	1
8	1148	3.609018040313	0
8	1158	3.7	1
8	1179	3.709018040714	0
8	1189	3.8	1
8	1210	3.809018041122	0
8	1220	3.9	1
8	1241	3.909018041538	0
8	1251	4	1
8	1272	4.009018041959	0
8	1282	4.1	1
8	1303	4.109018042387	0
8	1313	4.2	1
8	1334	4.209018042821	0
8	1344	4.3	1
8	1365	4.309018043261	0
8	1375	4.4	1
8	1396	4.409018043706	0
8	1406	4.5	1
8	1427	4.509018044158	0
8	1437	4.6	1
8	1458	4.609018044614	0
8	1468	4.7	1
8	1489	4.709018045076	0
8	1499	4.8	1
8	1520	4.809018045543	0
8	1530	4.9	1
8	1551	4.909018046015	0
8	1561	5	1
8	1582	5.009018046491	0
8	1592	5.1	1
8	1613	5.109018046973	0
8	1623	5.2	1
8	1644	5.209018047459	0
8	1654	5.3	1
8	1675	5.309018047949	0
8	1685	5.4	1
8	1706	5.409018048444	0
8	1716	5.5	1
8	1737	5.509018048942	0
8	1747	5.6	1
8	1768	5.609018049444	0
8	1778	5.7	1
8	1799	5.709018049951	0
8	1809	5.8	1
8	1830	5.809018050461	0
8	1840	5.9	1
8	1861	5.909018050975	0
8	1871	6	1
8	1892	6.009018051492	0
8	1902	6.1	1
8	1923	6.109018052013	0
8	1933	6.2	1
8	1954	6.209018052537	0
8	1964	6.3	1
8	1985	6.309018053063	0
8	1995	6.4	1
8	2016	6.409018053595	0
8	2026	6.5	1
8	2047	6.509018054127	0
8	2057	6.6	1
8	2078	6.609018054664	0
8	2088	6.7	1
8	2109	6.709018055203	0
8	2119	6.8	1
8	2140	6.809018055745	0
8	2150	6.9	1
8	2171	6.90901805629	0
8	2181	7	1
8	2202	7.009018056836	0
8	2212	7.1	1
8	2233	7.109018057386	0
8	2243	7.2	1
8	2264	7.209018057938	0
8	2274	7.3	1
8	2295	7.309018058493	0
8	2305	7.4	1
8	2326	7.40901805905	0
8	2336	7.5	1
8	2357	7.509018059609	0
8	2367	7.6	1
8	2388	7.609018060171	0
8	2398	7.7	1
8	2419	7.709018060734	0
8	2429	7.8	1
8	2450	7.8090180613	0
8	2460	7.9	1
8	2481	7.909018061867	0
8	2491	8	1
8	2512	8.009018062437	0
8	2522	8.1	1
8	2543	8.109018063009	0
8	2553	8.2	1
8	2574	8.209018063581	0
8	2584	8.3	1
8	2605	8.309018064157	0
8	2615	8.4	1
8	2636	8.409018064734	0
8	2646	8.5	1
8	2667	8.509018065313	0
8	2677	8.6	1
8	2698	8.609018065893	0
8	2708	8.7	1
8	2729	8.709018066475	0
8	2739	8.8	1
8	2760	8.809018067059	0
8	2770	8.9	1
8	2791	8.909018067644	0
8	2801	9	1
8	2822	9.00901806823	0
8	2832	9.1	1
8	2853	9.109018068818	0
8	2863	9.2	1
8	2884	9.209018069408	0
8	2894	9.3	1
8	2915	9.309018069998	0
8	2925	9.4	1
8	2946	9.409018070591	0
8	2956	9.5	1
8	2977	9.509018071184	0
8	2987	9.6	1
8	3008	9.60901807178	0
8	3018	9.7	1
8	3039	9.709018072376	0
8	3049	9.8	1
8	3070	9.809018072972	0
8	3080	9.9	1
8	3101	9.909018073572	0
8	3111	10	1
8	3132	10.009018074172	0
8	3142	10.1	1
8	3163	10.109018074772	0
8	3173	10.2	1
8	3194	10.209018075374	0
8	3204	10.3	1
8	3225	10.309018075977	0
8	3235	10.4	1
8	3256	10.409018076581	0
8	3266	10.5	1
8	3287	10.509018077186	0
8	3297	10.6	1
8	3318	10.609018077793	0
8	3328	10.7	1
8	3349	10.7090180784	0
8	3359	10.8	1
8	3380	10.809018079008	0
8	3390	10.9	1
8	3411	10.909018079617	0
8	3421	11	1
8	3442	11.009018080227	0
8	3452	11.1	1
8	3473	11.109018080838	0
8	3483	11.2	1
8	3504	11.20901808145	0
8	3514	11.3	1
8	3535	11.309018082063	0
8	3545	11.4	1
8	3566	11.409018082676	0
8	3576	11.5	1
8	3597	11.509018083291	0
8	3607	11.6	1
8	3628	11.609018083905	0
8	3638	11.7	1
8	3659	11.709018084521	0
8	3669	11.8	1
8	3690	11.809018085138	0
8	3700	11.9	1
8	3721	11.909018085755	0
8	3731	12	1
8	3752	12.009018086373	0
8	3762	12.1	1
8	3783	12.109018086993	0
8	3793	12.2	1
8	3814	12.209018087613	0
8	3824	12.3	1
8	3845	12.309018088233	0
8	3855	12.4	1
8	3876	12.409018088853	0
8	3886	12.5	1
8	3907	12.509018089475	0
8	3917	12.6	1
8	3938	12.609018090097	0
8	3948	12.7	1
8	3969	12.709018090721	0
8	3979	12.8	1
8	4000	12.809018091344	0
8	4010	12.9	1
8	4031	12.909018091968	0
8	4041	13	1
8	4062	13.009018092593	0
8	4072	13.1	1
8	4093	13.109018093219	0
8	4103	13.2	1
8	4124	13.209018093844	0
8	4134	13.3	1
8	4155	13.309018094471	0
8	4165	13.4	1
8	4186	13.409018095098	0
8	4196	13.5	1
8	4217	13.509018095725	0
8	4227	13.6	1
8	4248	13.609018096353	0
8	4258	13.7	1
8	4279	13.709018096982	0
8	4289	13.8	1
8	4310	13.809018097611	0
8	4320	13.9	1
8	4341	13.909018098241	0
8	4351	14	1
8	4372	14.009018098871	0
8	4382	14.1	1
8	4403	14.109018099502	0
8	4413	14.2	1
8	4434	14.209018100133	0
8	4444	14.3	1
8	4465	14.309018100764	0
8	4475	14.4	1
8	4496	14.409018101396	0
8	4506	14.5	1
8	4527	14.509018102029	0
8	4537	14.6	1
8	4558	14.609018102662	0
8	4568	14.7	1
8	4589	14.709018103295	0
8	4599	14.8	1
8	4620	14.809018103929	0
8	4630	14.9	1
8	4651	14.909018104563	0
8	4661	15	1
8	4682	15.009018105198	0
8	4692	15.1	1
8	4713	15.109018105833	0
8	4723	15.2	1
8	4744	15.209018106468	0
8	4754	15.3	1
8	4775	15.309018107104	0
8	4785	15.4	1
8	4806	15.40901810774	0
8	4816	15.5	1
8	4837	15.509018108376	0
8	4847	15.6	1
8	4868	15.609018109014	0
8	4878	15.7	1
8	4899	15.70901810965	0
8	4909	15.8	1
8	4930	15.809018110288	0
8	4940	15.9	1
8	4961	15.909018110926	0
8	4971	16	1
8	4992	16.009018111564	0
8	5002	16.1	1
8	5023	16.109018112203	0
8	5033	16.2	1
8	5054	16.209018112842	0
8	5064	16.3	1
8	5085	16.309018113482	0
8	5095	16.4	1
8	5116	16.409018114121	0
8	5126	16.5	1
8	5147	16.50901811476	0
8	5157	16.6	1
8	5178	16.609018115401	0
8	5188	16.7	1
8	5209	16.709018116042	0
8	5219	16.8	1
8	5240	16.809018116682	0
8	5250	16.9	1
8	5271	16.909018117324	0
8	5281	17	1
8	5302	17.009018117964	0
8	5312	17.1	1
8	5333	17.109018118606	0
8	5343	17.2	1
8	5364	17.209018119248	0
8	5374	17.3	1
8	5395	17.30901811989	0
8	5405	17.4	1
8	5426	17.409018120534	0
8	5436	17.5	1
8	5457	17.509018121176	0
8	5467	17.6	1
8	5488	17.60901812182	0
8	5498	17.7	1
8	5519	17.709018122462	0
8	5529	17.8	1
8	5550	17.809018123106	0
8	5560	17.9	1
8	5581	17.90901812375	0
8	5591	18	1
8	5612	18.009018124394	0
8	5622	18.1	1
8	5643	18.109018125038	0
8	5653	18.2	1
8	5674	18.209018125682	0
8	5684	18.3	1
8	5705	18.309018126328	0
8	5715	18.4	1
8	5736	18.409018126972	0
8	5746	18.5	1
8	5767	18.509018127618	0
8	5777	18.6	1
8	5798	18.609018128263	0
8	5808	18.7	1
8	5829	18.709018128908	0
8	5839	18.8	1
8	5860	18.809018129554	0
8	5870	18.9	1
8	5891	18.9090181302	0
8	5901	19	1
8	5922	19.009018130847	0
8	5932	19.1	1
8	5953	19.109018131494	0
8	5963	19.2	1
8	5984	19.20901813214	0
8	5994	19.3	1
8	6015	19.309018132787	0
8	6025	19.4	1
8	6046	19.409018133434	0
8	6056	19.5	1
8	6077	19.509018134082	0
8	6087	19.6	1
8	6108	19.609018134729	0
8	6118	19.7	1
8	6139	19.709018135376	0
8	6149	19.8	1
8	6170	19.809018136024	0
8	6180	19.9	1
8	6201	19.909018136672	0
8	6211	20	1
8	6232	20.009018137321	0
8	6242	20.1	1
8	6263	20.10901813797	0
8	6273	20.2	1
8	6294	20.209018138618	0
8	6304	20.3	1
8	6325	20.309018139267	0
8	6335	20.4	1
8	6356	20.409018139916	0
8	6366	20.5	1
8	6387	20.509018140565	0
8	6397	20.6	1
8	6418	20.609018141214	0
8	6428	20.7	1
8	6449	20.709018141864	0
8	6459	20.8	1
8	6480	20.809018142513	0
8	6490	20.9	1
8	6511	20.909018143163	0
8	6521	21	1
8	6542	21.009018143813	0
8	6552	21.1	1
8	6573	21.109018144463	0
8	6583	21.2	1
8	6604	21.209018145114	0
8	6614	21.3	1
8	6635	21.309018145764	0
8	6645	21.4	1
8	6666	21.409018146414	0
8	6676	21.5	1
8	6697	21.509018147065	0
8	6707	21.6	1
8	6728	21.609018147716	0
8	6738	21.7	1
8	6759	21.709018148367	0
8	6769	21.8	1
8	6790	21.809018149018	0
8	6800	21.9	1
8	6821	21.909018149669	0
8	6831	22	1
8	6852	22.009018150321	0
8	6862	22.1	1
8	6883	22.109018150972	0
8	6893	22.2	1
8	6914	22.209018151624	0
8	6924	22.3	1
8	6945	22.309018152276	0
8	6955	22.4	1
8	6976	22.409018152928	0
8	6986	22.5	1
8	7007	22.50901815358	0
8	7017	22.6	1
8	7038	22.609018154232	0
8	7048	22.7	1
8	7055	22.708926	0
8	7058	22.709568	1
8	7065	22.718494	0
8	7069	22.719276	1
8	7076	22.728202	0
8	7080	22.731744	1
8	7088	22.74067	0
8	7091	22.746212	1
8	7099	22.755138	0
8	7102	22.76468	1
8	7110	22.773606	0
8	7113	22.779428	1
8	7121	22.788354	0
8	7131	22.8	1
8	7138	22.808926	0
8	7141	22.809148	1
8	7148	22.818074	0
8	7151	22.818656	1
8	7159	22.827582	0
8	7163	22.832264	1
8	7171	22.84119	0
8	7174	22.848892	1
8	7182	22.857818	0
8	7186	22.86986	1
8	7193	22.878786	0
8	7197	22.891868	1
8	7210	22.900794	0
8	7214	22.912396	1
8	7221	22.921322	0
8	7225	22.934524	1
8	7232	22.94345	0
8	7236	22.953932	1
8	7243	22.962858	0
8	7246	22.96812	1
8	7254	22.977046	0
8	7257	22.979908	1
8	7265	22.988834	0
8	7268	22.993116	1
8	7282	23.002042	0
8	7286	23.021164	1
8	7293	23.03009	0
8	7296	23.033012	1
8	7304	23.041938	0
8	7307	23.04216	1
8	7314	23.051086	0
8	7318	23.059688	1
8	7326	23.068614	0
8	7329	23.075716	1
8	7337	23.084642	0
8	7347	23.103604	1
8	7354	23.11253	0
8	7358	23.124392	1
8	7365	23.133318	0
8	7369	23.14986	1
8	7376	23.158786	0
8	7380	23.179048	1
8	7387	23.187974	0
8	7390	23.196776	1
8	7404	23.205702	0
8	7408	23.222224	1
8	7415	23.23115	0
8	7419	23.246072	1
8	7426	23.254998	0
8	7430	23.2726	1
8	7437	23.281526	0
8	7441	23.297388	1
8	7454	23.306314	0
8	7457	23.312256	1
8	7465	23.321182	0
8	7469	23.332584	1
8	7476	23.34151	0
8	7480	23.355052	1
8	7487	23.363978	0
8	7490	23.37286	1
8	7498	23.381786	0
8	7502	23.398448	1
8	7515	23.407374	0
8	7519	23.423976	1
8	7526	23.432902	0
8	7530	23.443204	1
8	7537	23.45213	0
8	7541	23.472672	1
8	7548	23.481598	0
8	7552	23.49746	1
8	7565	23.506386	0
8	7569	23.523628	1
8	7576	23.532554	0
8	7579	23.541676	1
8	7587	23.550602	0
8	7590	23.557264	1
8	7598	23.56619	0
8	7602	23.576132	1
8	7609	23.585058	0
8	7612	23.58626	1
8	7620	23.595186	0
8	7630	23.611648	1
8	7637	23.620574	0
8	7640	23.621896	1
8	7648	23.630822	0
8	7651	23.637684	1
8	7659	23.64661	0
8	7663	23.660072	1
8	7670	23.668998	0
8	7674	23.68186	1
8	7681	23.690786	0
8	7684	23.694188	1
8	7698	23.703114	0
8	7702	23.722156	1
8	7709	23.731082	0
8	7712	23.733344	1
8	7720	23.74227	0
8	7723	23.746432	1
8	7731	23.755358	0
8	7734	23.7615	1
8	7742	23.770426	0
8	7746	23.786188	1
8	7753	23.795114	0
8	7763	23.813036	1
8	7770	23.821962	0
8	7774	23.833104	1
8	7781	23.84203	0
8	7785	23.855752	1
8	7792	23.864678	0
8	7796	23.87778	1
8	7803	23.886706	0
8	7806	23.887108	1
8	7813	23.896034	0
8	7824	23.916496	1
8	7831	23.925422	0
8	7835	23.939964	1
8	7842	23.94889	0
8	7846	23.969352	1
8	7853	23.978278	0
8	7857	23.9891	1
8	7864	23.998026	0
8	7874	24.008248	1
8	7881	24.017174	0
8	7885	24.037016	1
8	7892	24.045942	0
8	7896	24.061604	1
8	7903	24.07053	0
8	7907	24.085452	1
8	7914	24.094378	0
8	7924	24.11	1
8	7931	24.118926	0
8	7934	24.128168	1
8	7942	24.137094	0
8	7945	24.146596	1
8	7953	24.155522	0
8	7956	24.165124	1
8	7964	24.17405	0
8	7968	24.193432	1
8	7981	24.202358	0
8	7984	24.2105	1
8	7992	24.219426	0
8	7995	24.220688	1
8	8003	24.229614	0
8	8007	24.247396	1
8	8014	24.256322	0
8	8018	24.271444	1
8	8025	24.28037	0
8	8029	24.293772	1
8	8042	24.302698	0
8	8045	24.30292	1
8	8052	24.311846	0
8	8057	24.324228	1
8	8064	24.333154	0
8	8068	24.353376	1
8	8075	24.362302	0
8	8078	24.368544	1
8	8086	24.37747	0
8	8089	24.384472	1
8	8097	24.393398	0
8	8107	24.40438	1
8	8114	24.413306	0
8	8117	24.416508	1
8	8125	24.425434	0
8	8129	24.441336	1
8	8136	24.450262	0
8	8139	24.457464	1
8	8147	24.46639	0
8	8150	24.473672	1
8	8158	24.482598	0
8	8162	24.49668	1
8	8175	24.505606	0
8	8178	24.513968	1
8	8186	24.522894	0
8	8189	24.523616	1
8	8196	24.532542	0
8	8201	24.551264	1
8	8208	24.56019	0
8	8211	24.567752	1
8	8219	24.576678	0
8	8223	24.59324	1
8	8236	24.602166	0
8	8240	24.621248	1
8	8247	24.630174	0
8	8251	24.647396	1
8	8258	24.656322	0
8	8262	24.666504	1
8	8269	24.67543	0
8	8272	24.675712	1
8	8279	24.684638	0
8	8284	24.69712	1
8	8297	24.706046	0
8	8300	24.708928	1
8	8308	24.717854	0
8	8312	24.731876	1
8	8319	24.740802	0
8	8323	24.758864	1
8	8330	24.76779	0
8	8334	24.784952	1
8	8341	24.793878	0
8	8350	24.80154	1
8	8358	24.810466	0
8	8362	24.825028	1
8	8369	24.833954	0
8	8372	24.837056	1
8	8380	24.845982	0
8	8384	24.863824	1
8	8391	24.87275	0
8	8395	24.893052	1
8	8408	24.901978	0
8	8411	24.90464	1
8	8419	24.913566	0
8	8423	24.929908	1
8	8430	24.938834	0
8	8434	24.950516	1
8	8441	24.959442	0
8	8445	24.970224	1
8	8452	24.97915	0
8	8456	24.995372	1
8	8469	25.004298	0
8	8473	25.02396	1
8	8480	25.032886	0
8	8483	25.035268	1
8	8491	25.044194	0
8	8495	25.063196	1
8	8502	25.072122	0
8	8506	25.085264	1
8	8513	25.09419	0
8	8516	25.099072	1
8	8530	25.107998	0
8	8534	25.12794	1
8	8541	25.136866	0
8	8545	25.154188	1
8	8552	25.163114	0
8	8556	25.174356	1
8	8563	25.183282	0
8	8566	25.184684	1
8	8574	25.19361	0
8	8584	25.212292	1
8	8591	25.221218	0
8	8594	25.23044	1
8	8602	25.239366	0
8	8605	25.244808	1
8	8613	25.253734	0
8	8616	25.262756	1
8	8624	25.271682	0
8	8628	25.283884	1
8	8635	25.29281	0
8	8645	25.305412	1
8	8652	25.314338	0
8	8655	25.32126	1
8	8663	25.330186	0
8	8667	25.347208	1
8	8674	25.356134	0
8	8677	25.361756	1
8	8685	25.370682	0
8	8688	25.378204	1
8	8696	25.38713	0
8	8706	25.404112	1
8	8713	25.413038	0
8	8716	25.41768	1
8	8724	25.426606	0
8	8728	25.445528	1
8	8735	25.454454	0
8	8739	25.467456	1
8	8746	25.476382	0
8	8750	25.494684	1
8	8763	25.50361	0
8	8767	25.520272	1
8	8774	25.529198	0
8	8778	25.54728	1
8	8785	25.556206	0
8	8788	25.563728	1
8	8796	25.572654	0
8	8799	25.575356	1
8	8807	25.584282	0
8	8817	25.600564	1
8	8824	25.60949	0
8	8828	25.623592	1
8	8835	25.632518	0
8	8838	25.6385	1
8	8846	25.647426	0
8	8849	25.654668	1
8	8857	25.663594	0
8	8861	25.680476	1
8	8868	25.689402	0
8	8871	25.692224	1
8	8885	25.70115	0
8	8888	25.705812	1
8	8896	25.714738	0
8	8900	25.73266	1
8	8907	25.741586	0
8	8911	25.755328	1
8	8918	25.764254	0
8	8921	25.773276	1
8	8929	25.782202	0
8	8932	25.790684	1
8	8940	25.79961	0
8	8949	25.805432	1
8	8957	25.814358	0
8	8960	25.81502	1
8	8967	25.823946	0
8	8972	25.838808	1
8	8979	25.847734	0
8	8982	25.852836	1
8	8990	25.861762	0
8	8993	25.869204	1
8	9001	25.87813	0
8	9005	25.897212	1
8	9018	25.906138	0
8	9021	25.91502	1
8	9029	25.923946	0
8	9032	25.928028	1
8	9040	25.936954	0
8	9044	25.955676	1
8	9051	25.964602	0
8	9055	25.977684	1
8	9062	25.98661	0
8	9066	25.999492	1
8	9079	26.008418	0
8	9082	26.01	1
8	9090	26.018926	0
8	9093	26.023988	1
8	9101	26.032914	0
8	9105	26.050096	1
8	9112	26.059022	0
8	9115	26.061864	1
8	9123	26.07079	0
8	9127	26.085072	1
8	9134	26.093998	0
8	9137	26.0984	1
8	9151	26.107326	0
8	9155	26.119868	1
8	9162	26.128794	0
8	9165	26.135396	1
8	9173	26.144322	0
8	9176	26.146504	1
8	9184	26.15543	0
8	9188	26.172612	1
8	9195	26.181538	0
8	9198	26.18822	1
8	9206	26.197146	0
8	9216	26.209188	1
8	9223	26.218114	0
8	9226	26.223376	1
8	9234	26.232302	0
8	9238	26.245344	1
8	9245	26.25427	0
8	9248	26.261352	1
8	9256	26.270278	0
8	9259	26.27256	1
8	9267	26.281486	0
8	9277	26.300148	1
8	9284	26.309074	0
8	9288	26.328796	1
8	9295	26.337722	0
8	9299	26.348244	1
8	9306	26.35717	0
8	9309	26.360292	1
8	9317	26.369218	0
8	9321	26.3893	1
8	9328	26.398226	0
8	9337	26.407888	1
8	9345	26.416814	0
8	9349	26.430616	1
8	9356	26.439542	0
8	9360	26.450844	1
8	9367	26.45977	0
8	9370	26.459912	1
8	9377	26.468838	0
8	9381	26.47618	1
8	9389	26.485106	0
8	9393	26.499068	1
8	9406	26.507994	0
8	9409	26.509916	1
8	9417	26.518842	0
8	9420	26.520464	1
8	9428	26.52939	0
8	9432	26.539512	1
8	9439	26.548438	0
8	9443	26.56334	1
8	9450	26.572266	0
8	9454	26.585108	1
8	9461	26.594034	0
8	9470	26.601036	1
8	9478	26.609962	0
8	9482	26.627124	1
8	9489	26.63605	0
8	9492	26.641832	1
8	9500	26.650758	0
8	9504	26.66526	1
8	9511	26.674186	0
8	9514	26.674968	1
8	9521	26.683894	0
8	9525	26.686336	1
8	9533	26.695262	0
8	9542	26.704484	1
8	9550	26.71341	0
8	9553	26.722112	1
8	9561	26.731038	0
8	9565	26.74772	1
8	9572	26.756646	0
8	9576	26.773288	1
8	9583	26.782214	0
8	9587	26.796156	1
8	9600	26.805082	0
8	9604	26.820124	1
8	9611	26.82905	0
8	9614	26.831832	1
8	9622	26.840758	0
8	9625	26.84972	1
8	9633	26.858646	0
8	9636	26.860648	1
8	9644	26.869574	0
8	9647	26.876656	1
8	9655	26.885582	0
8	9658	26.893744	1
8	9672	26.90267	0
8	9676	26.916932	1
8	9683	26.925858	0
8	9686	26.93408	1
8	9694	26.943006	0
8	9698	26.961968	1
8	9705	26.970894	0
8	9708	26.974736	1
8	9716	26.983662	0
8	9726	27.003304	1
8	9733	27.01223	0
8	9737	27.025892	1
8	9744	27.034818	0
8	9748	27.05242	1
8	9755	27.061346	0
8	9759	27.075528	1
8	9766	27.084454	0
8	9770	27.094916	1
8	9783	27.103842	0
8	9787	27.113944	1
8	9794	27.12287	0
8	9797	27.127112	1
8	9805	27.136038	0
8	9808	27.14446	1
8	9816	27.153386	0
8	9819	27.160828	1
8	9827	27.169754	0
8	9831	27.186996	1
8	9838	27.195922	0
8	9848	27.210824	1
8	9855	27.21975	0
8	9859	27.231592	1
8	9866	27.240518	0
8	9869	27.24502	1
8	9877	27.253946	0
8	9881	27.273108	1
8	9888	27.282034	0
8	9892	27.292936	1
8	9905	27.301862	0
8	9908	27.302444	1
8	9915	27.31137	0
8	9919	27.320712	1
8	9927	27.329638	0
8	9931	27.34416	1
8	9938	27.353086	0
8	9941	27.360308	1
8	9949	27.369234	0
8	9953	27.381416	1
8	9960	27.390342	0
8	9963	27.391504	1
8	9977	27.40043	0
8	9981	27.416852	1
8	9988	27.425778	0
8	9992	27.44032	1
8	9999	27.449246	0
8	10003	27.460848	1
8	10010	27.469774	0
8	10013	27.478796	1
8	10021	27.487722	0
8	10031	27.504164	1
8	10038	27.51309	0
8	10041	27.515312	1
8	10049	27.524238	0
8	10053	27.53718	1
8	10060	27.546106	0
8	10063	27.554128	1
8	10071	27.563054	0
8	10075	27.582616	1
8	10082	27.591542	0
8	10092	27.609864	1
8	10099	27.61879	0
8	10103	27.631052	1
8	10110	27.639978	0
8	10114	27.65048	1
8	10121	27.659406	0
8	10125	27.673248	1
8	10132	27.682174	0
8	10135	27.687216	1
8	10143	27.696142	0
8	10152	27.704564	1
8	10160	27.71349	0
8	10163	27.717012	1
8	10171	27.725938	0
8	10174	27.7294	1
8	10182	27.738326	0
8	10185	27.744648	1
8	10193	27.753574	0
8	10197	27.772496	1
8	10204	27.781422	0
8	10208	27.793444	1
8	10221	27.80237	0
8	10224	27.806912	1
8	10232	27.815838	0
8	10236	27.83264	1
8	10243	27.841566	0
8	10247	27.855328	1
8	10254	27.864254	0
8	10258	27.881076	1
8	10265	27.890002	0
8	10268	27.892424	1
8	10282	27.90135	0
8	10285	27.908172	1
8	10293	27.917098	0
8	10297	27.93206	1
8	10304	27.940986	0
8	10307	27.945508	1
8	10315	27.954434	0
8	10318	27.959496	1
8	10326	27.968422	0
8	10329	27.970564	1
8	10337	27.97949	0
8	10340	27.987932	1
8	10348	27.996858	0
8	10357	28.00142	1
8	10365	28.010346	0
8	10369	28.020648	1
8	10376	28.029574	0
8	10379	28.033196	1
8	10387	28.042122	0
8	10391	28.054364	1
8	10398	28.06329	0
8	10402	28.075952	1
8	10409	28.084878	0
8	10413	28.09848	1
8	10426	28.107406	0
8	10430	28.122268	1
8	10437	28.131194	0
8	10441	28.146236	1
8	10448	28.155162	0
8	10452	28.172264	1
8	10459	28.18119	0
8	10462	28.182652	1
8	10470	28.191578	0
8	10479	28.20084	1
8	10487	28.209766	0
8	10490	28.212408	1
8	10498	28.221334	0
8	10501	28.224236	1
8	10509	28.233162	0
8	10513	28.245784	1
8	10520	28.25471	0
8	10524	28.269452	1
8	10531	28.278378	0
8	10534	28.28162	1
8	10542	28.290546	0
8	10552	28.304608	1
8	10559	28.313534	0
8	10562	28.320096	1
8	10570	28.329022	0
8	10573	28.338124	1
8	10581	28.34705	0
8	10585	28.361372	1
8	10592	28.370298	0
8	10596	28.38756	1
8	10603	28.396486	0
8	10612	28.402428	1
8	10620	28.411354	0
8	10623	28.411556	1
8	10630	28.420482	0
8	10635	28.434624	1
8	10642	28.44355	0
8	10645	28.448452	1
8	10653	28.457378	0
8	10657	28.47106	1
8	10664	28.479986	0
8	10667	28.483548	1
8	10675	28.492474	0
8	10685	28.507076	1
8	10692	28.516002	0
8	10696	28.527784	1
8	10703	28.53671	0
8	10707	28.550052	1
8	10714	28.558978	0
8	10718	28.57716	1
8	10725	28.586086	0
8	10735	28.602148	1
8	10742	28.611074	0
8	10746	28.629256	1
8	10753	28.638182	0
8	10757	28.655004	1
8	10764	28.66393	0
8	10768	28.676152	1
8	10775	28.685078	0
8	10785	28.70498	1
8	10792	28.713906	0
8	10796	28.731428	1
8	10803	28.740354	0
8	10806	28.748076	1
8	10814	28.757002	0
8	10818	28.771324	1
8	10825	28.78025	0
8	10828	28.782572	1
8	10836	28.791498	0
8	10839	28.79822	1
8	10853	28.807146	0
8	10857	28.821168	1
8	10864	28.830094	0
8	10868	28.847136	1
8	10875	28.856062	0
8	10879	28.874544	1
8	10886	28.88347	0
8	10890	28.893752	1
8	10903	28.902678	0
8	10907	28.91468	1
8	10914	28.923606	0
8	10917	28.924448	1
8	10924	28.933374	0
8	10928	28.938256	1
8	10936	28.947182	0
8	10939	28.952184	1
8	10947	28.96111	0
8	10950	28.966252	1
8	10958	28.975178	0
8	10961	28.98316	1
8	10969	28.992086	0
8	10979	29.007548	1
8	10986	29.016474	0
8	10989	29.017036	1
8	10996	29.025962	0
8	11000	29.034684	1
8	11008	29.04361	0
8	11011	29.048332	1
8	11019	29.057258	0
8	11023	29.07704	1
8	11030	29.085966	0
8	11033	29.094108	1
8	11047	29.103034	0
8	11051	29.123296	1
8	11058	29.132222	0
8	11061	29.134744	1
8	11069	29.14367	0
8	11073	29.157352	1
8	11080	29.166278	0
8	11084	29.18432	1
8	11091	29.193246	0
8	11100	29.201088	1
8	11108	29.210014	0
8	11112	29.224356	1
8	11119	29.233282	0
8	11122	29.241344	1
8	11130	29.25027	0
8	11133	29.257332	1
8	11141	29.266258	0
8	11145	29.27812	1
8	11152	29.287046	0
8	11162	29.307568	1
8	11169	29.316494	0
8	11172	29.318196	1
8	11180	29.327122	0
8	11184	29.343864	1
8	11191	29.35279	0
8	11195	29.364612	1
8	11202	29.373538	0
8	11205	29.37766	1
8	11213	29.386586	0
8	11223	29.402988	1
8	11230	29.411914	0
8	11234	29.423236	1
8	11241	29.432162	0
8	11245	29.446284	1
8	11252	29.45521	0
8	11255	29.458752	1
8	11263	29.467678	0
8	11266	29.47684	1
8	11274	29.485766	0
8	11277	29.488668	1
8	11285	29.497594	0
8	11295	29.512816	1
8	11302	29.521742	0
8	11305	29.531384	1
8	11313	29.54031	0
8	11316	29.547352	1
8	11324	29.556278	0
8	11327	29.56416	1
8	11335	29.573086	0
8	11338	29.575728	1
8	11346	29.584654	0
8	11350	29.599156	1
8	11363	29.608082	0
8	11366	29.612164	1
8	11374	29.62109	0
8	11378	29.635192	1
8	11385	29.644118	0
8	11389	29.66226	1
8	11396	29.671186	0
8	11399	29.671668	1
8	11406	29.680594	0
8	11411	29.694916	1
8	11424	29.703842	0
8	11427	29.710984	1
8	11435	29.71991	0
8	11439	29.733332	1
8	11446	29.742258	0
8	11450	29.75526	1
8	11457	29.764186	0
8	11460	29.770828	1
8	11468	29.779754	0
8	11471	29.788376	1
8	11479	29.797302	0
8	11488	29.800724	1
8	11496	29.80965	0
8	11499	29.813332	1
8	11507	29.822258	0
8	11510	29.83118	1
8	11518	29.840106	0
8	11522	29.853528	1
8	11529	29.862454	0
8	11533	29.876056	1
8	11540	29.884982	0
8	11550	29.903404	1
8	11557	29.91233	0
8	11560	29.921712	1
8	11568	29.930638	0
8	11572	29.94584	1
8	11579	29.954766	0
8	11582	29.957608	1
8	11590	29.966534	0
8	11594	29.985656	1
8	11601	29.994582	0
8	11611	30.009664	1
8	11618	30.01859	0
8	11622	30.028652	1
8	11629	30.037578	0
8	11633	30.05796	1
8	11640	30.066886	0
8	11644	30.079808	1
8	11651	30.088734	0
8	11661	30.107456	1
8	11668	30.116382	0
8	11671	30.119664	1
8	11679	30.12859	0
8	11683	30.139212	1
8	11690	30.148138	0
8	11694	30.16088	1
8	11701	30.169806	0
8	11705	30.186228	1
8	11712	30.195154	0
8	11722	30.213016	1
8	11729	30.221942	0
8	11733	30.238124	1
8	11740	30.24705	0
8	11743	30.249492	1
8	11751	30.258418	0
8	11755	30.27054	1
8	11762	30.279466	0
8	11766	30.292328	1
8	11779	30.301254	0
8	11782	30.304876	1
8	11790	30.313802	0
8	11794	30.323904	1
8	11801	30.33283	0
8	11805	30.350472	1
8	11812	30.359398	0
8	11816	30.37082	1
8	11823	30.379746	0
8	11827	30.399908	1
8	11840	30.408834	0
8	11844	30.420496	1
8	11851	30.429422	0
8	11854	30.436204	1
8	11862	30.44513	0
8	11866	30.462992	1
8	11873	30.471918	0
8	11877	30.48376	1
8	11884	30.492686	0
8	11887	30.495748	1
8	11901	30.504674	0
8	11905	30.520316	1
8	11912	30.529242	0
8	11916	30.542244	1
8	11923	30.55117	0
8	11926	30.552272	1
8	11934	30.561198	0
8	11937	30.56286	1
8	11945	30.571786	0
8	11948	30.577788	1
8	11956	30.586714	0
8	11959	30.589176	1
8	11967	30.598102	0
8	11977	30.608104	1
8	11984	30.61703	0
8	11987	30.619352	1
8	11995	30.628278	0
8	11999	30.64798	1
8	12006	30.656906	0
8	12009	30.660628	1
8	12017	30.669554	0
8	12021	30.680916	1
8	12028	30.689842	0
8	12031	30.691404	1
8	12045	30.70033	0
8	12048	30.709132	1
8	12056	30.718058	0
8	12060	30.73832	1
8	12067	30.747246	0
8	12070	30.753088	1
8	12078	30.762014	0
8	12082	30.772456	1
8	12089	30.781382	0
8	12092	30.783004	1
8	12100	30.79193	0
8	12110	30.803992	1
8	12117	30.812918	0
8	12120	30.81948	1
8	12128	30.828406	0
8	12132	30.846288	1
8	12139	30.855214	0
8	12143	30.865996	1
8	12150	30.874922	0
8	12153	30.879224	1
8	12161	30.88815	0
8	12164	30.889132	1
8	12172	30.898058	0
8	12182	30.90816	1
8	12189	30.917086	0
8	12192	30.925428	1
8	12200	30.934354	0
8	12204	30.951596	1
8	12211	30.960522	0
8	12214	30.964264	1
8	12222	30.97319	0
8	12225	30.979412	1
8	12233	30.988338	0
8	12243	31.00772	1
8	12250	31.016646	0
8	12254	31.032328	1
8	12261	31.041254	0
8	12264	31.046556	1
8	12272	31.055482	0
8	12275	31.063064	1
8	12283	31.07199	0
8	12287	31.089652	1
8	12294	31.098578	0
8	12304	31.11362	1
8	12311	31.122546	0
8	12314	31.130288	1
8	12322	31.139214	0
8	12326	31.157056	1
8	12333	31.165982	0
8	12337	31.178364	1
8	12344	31.18729	0
8	12347	31.189232	1
8	12355	31.198158	0
8	12358	31.19966	1
8	12372	31.208586	0
8	12376	31.219168	1
8	12383	31.228094	0
8	12386	31.228476	1
8	12393	31.237402	0
8	12398	31.249864	1
8	12405	31.25879	0
8	12408	31.263432	1
8	12416	31.272358	0
8	12419	31.28092	1
8	12427	31.289846	0
8	12430	31.293328	1
8	12444	31.302254	0
8	12447	31.309956	1
8	12455	31.318882	0
8	12458	31.324804	1
8	12466	31.33373	0
8	12470	31.352312	1
8	12477	31.361238	0
8	12480	31.36336	1
8	12488	31.372286	0
8	12491	31.376768	1
8	12499	31.385694	0
8	12502	31.391956	1
8	12516	31.400882	0
8	12519	31.405224	1
8	12527	31.41415	0
8	12531	31.430052	1
8	12538	31.438978	0
8	12542	31.4538	1
8	12549	31.462726	0
8	12553	31.476228	1
8	12560	31.485154	0
8	12564	31.496976	1
8	12577	31.505902	0
8	12580	31.514224	1
8	12588	31.52315	0
8	12592	31.541692	1
8	12599	31.550618	0
8	12603	31.56178	1
8	12610	31.570706	0
8	12613	31.575528	1
8	12621	31.584454	0
8	12625	31.597296	1
8	12638	31.606222	0
8	12642	31.619644	1
8	12649	31.62857	0
8	12653	31.641872	1
8	12660	31.650798	0
8	12664	31.66508	1
8	12671	31.674006	0
8	12674	31.677588	1
8	12682	31.686514	0
8	12692	31.701116	1
8	12699	31.710042	0
8	12703	31.726624	1
8	12710	31.73555	0
8	12713	31.735692	1
8	12720	31.744618	0
8	12724	31.74752	1
8	12732	31.756446	0
8	12736	31.770728	1
8	12743	31.779654	0
8	12747	31.797836	1
8	12760	31.806762	0
8	12764	31.824244	1
8	12771	31.83317	0
8	12774	31.842132	1
8	12782	31.851058	0
8	12786	31.87052	1
8	12793	31.879446	0
8	12797	31.897888	1
8	12810	31.906814	0
8	12813	31.907956	1
8	12821	31.916882	0
8	12824	31.921864	1
8	12832	31.93079	0
8	12836	31.948332	1
8	12843	31.957258	0
8	12846	31.9578	1
8	12853	31.966726	0
8	12858	31.980528	1
8	12865	31.989454	0
8	12875	32.002196	1
8	12882	32.011122	0
8	12886	32.020944	1
8	12893	32.02987	0
8	12896	32.037312	1
8	12904	32.046238	0
8	12907	32.04848	1
8	12915	32.057406	0
8	12919	32.071668	1
8	12926	32.080594	0
8	12929	32.085236	1
8	12937	32.094162	0
8	12947	32.107344	1
8	12954	32.11627	0
8	12957	32.118772	1
8	12965	32.127698	0
8	12969	32.13874	1
8	12976	32.147666	0
8	12979	32.150828	1
8	12987	32.159754	0
8	12991	32.178056	1
8	12998	32.186982	0
8	13008	32.205144	1
8	13015	32.21407	0
8	13019	32.229592	1
8	13026	32.238518	0
8	13029	32.24398	1
8	13037	32.252906	0
8	13040	32.253168	1
8	13047	32.262094	0
8	13052	32.280096	1
8	13059	32.289022	0
8	13062	32.294404	1
8	13076	32.30333	0
8	13080	32.322152	1
8	13087	32.331078	0
8	13090	32.33784	1
8	13098	32.346766	0
8	13101	32.354308	1
8	13109	32.363234	0
8	13112	32.370196	1
8	13120	32.379122	0
8	13123	32.386904	1
8	13131	32.39583	0
8	13140	32.403372	1
8	13148	32.412298	0
8	13152	32.42882	1
8	13159	32.437746	0
8	13162	32.443048	1
8	13170	32.451974	0
8	13173	32.458756	1
8	13181	32.467682	0
8	13185	32.481204	1
8	13192	32.49013	0
8	13202	32.500692	1
8	13209	32.509618	0
8	13213	32.52912	1
8	13220	32.538046	0
8	13223	32.545968	1
8	13231	32.554894	0
8	13235	32.567596	1
8	13242	32.576522	0
8	13245	32.580284	1
8	13253	32.58921	0
8	13256	32.594052	1
8	13270	32.602978	0
8	13274	32.61934	1
8	13281	32.628266	0
8	13285	32.640228	1
8	13292	32.649154	0
8	13295	32.650536	1
8	13303	32.659462	0
8	13306	32.666244	1
8	13314	32.67517	0
8	13318	32.686492	1
8	13325	32.695418	0
8	13335	32.70732	1
8	13342	32.716246	0
8	13345	32.718788	1
8	13353	32.727714	0
8	13357	32.743576	1
8	13364	32.752502	0
8	13367	32.759544	1
8	13375	32.76847	0
8	13379	32.779112	1
8	13386	32.788038	0
8	13389	32.79262	1
8	13403	32.801546	0
8	13406	32.806408	1
8	13414	32.815334	0
8	13417	32.817576	1
8	13425	32.826502	0
8	13428	32.830904	1
8	13436	32.83983	0
8	13440	32.850332	1
8	13447	32.859258	0
8	13451	32.87164	1
8	13458	32.880566	0
8	13462	32.891908	1
8	13475	32.900834	0
8	13479	32.919416	1
8	13486	32.928342	0
8	13489	32.931644	1
8	13497	32.94057	0
8	13500	32.948492	1
8	13508	32.957418	0
8	13511	32.96042	1
8	13519	32.969346	0
8	13523	32.988668	1
8	13530	32.997594	0
8	13540	33.007436	1
8	13547	33.016362	0
8	13551	33.027924	1
8	13558	33.03685	0
8	13562	33.049492	1
8	13569	33.058418	0
8	13572	33.06046	1
8	13580	33.069386	0
8	13583	33.076568	1
8	13591	33.085494	0
8	13595	33.095556	1
8	13608	33.104482	0
8	13611	33.110384	1
8	13619	33.11931	0
8	13622	33.120692	1
8	13630	33.129618	0
8	13633	33.13764	1
8	13641	33.146566	0
8	13644	33.154628	1
8	13652	33.163554	0
8	13656	33.175796	1
8	13663	33.184722	0
8	13673	33.201504	1
8	13680	33.21043	0
8	13683	33.217492	1
8	13691	33.226418	0
8	13695	33.24654	1
8	13702	33.255466	0
8	13705	33.258608	1
8	13713	33.267534	0
8	13716	33.275736	1
8	13724	33.284662	0
8	13727	33.292584	1
8	13741	33.30151	0
8	13745	33.313552	1
8	13752	33.322478	0
8	13755	33.32516	1
8	13763	33.334086	0
8	13767	33.343908	1
8	13774	33.352834	0
8	13778	33.368436	1
8	13785	33.377362	0
8	13788	33.384464	1
8	13796	33.39339	0
8	13805	33.402732	1
8	13813	33.411658	0
8	13817	33.42686	1
8	13824	33.435786	0
8	13827	33.437588	1
8	13835	33.446514	0
8	13839	33.464816	1
8	13846	33.473742	0
8	13850	33.493844	1
8	13863	33.50277	0
8	13866	33.506512	1
8	13874	33.515438	0
8	13878	33.52742	1
8	13885	33.536346	0
8	13888	33.544748	1
8	13896	33.553674	0
8	13899	33.553816	1
8	13906	33.562742	0
8	13911	33.577424	1
8	13918	33.58635	0
8	13928	33.600872	1
8	13935	33.609798	0
8	13939	33.62522	1
8	13946	33.634146	0
8	13950	33.647148	1
8	13957	33.656074	0
8	13961	33.667676	1
8	13968	33.676602	0
8	13971	33.683204	1
8	13979	33.69213	0
8	13982	33.695152	1
8	13996	33.704078	0
8	13999	33.71336	1
8	14007	33.722286	0
8	14011	33.734348	1
8	14018	33.743274	0
8	14021	33.745736	1
8	14029	33.754662	0
8	14033	33.769624	1
8	14040	33.77855	0
8	14044	33.794032	1
8	14057	33.802958	0
8	14060	33.80946	1
8	14068	33.818386	0
8	14072	33.837568	1
8	14079	33.846494	0
8	14083	33.857836	1
8	14090	33.866762	0
8	14093	33.869804	1
8	14101	33.87873	0
8	14105	33.896572	1
8	14118	33.905498	0
8	14122	33.91606	1
8	14129	33.924986	0
8	14133	33.934968	1
8	14140	33.943894	0
8	14143	33.947836	1
8	14151	33.956762	0
8	14154	33.958484	1
8	14162	33.96741	0
8	14166	33.982392	1
8	14173	33.991318	0
8	14176	33.99558	1
8	14190	34.004506	0
8	14194	34.022648	1
8	14201	34.031574	0
8	14205	34.049956	1
8	14212	34.058882	0
8	14215	34.063584	1
8	14223	34.07251	0
8	14227	34.089432	1
8	14234	34.098358	0
8	14243	34.10486	1
8	14251	34.113786	0
8	14255	34.131108	1
8	14262	34.140034	0
8	14265	34.147496	1
8	14273	34.156422	0
8	14276	34.156704	1
8	14283	34.16563	0
8	14288	34.175952	1
8	14295	34.184878	0
8	14305	34.20082	1
8	14312	34.209746	0
8	14315	34.213048	1
8	14323	34.221974	0
8	14327	34.237276	1
8	14334	34.246202	0
8	14338	34.258184	1
8	14345	34.26711	0
8	14348	34.270352	1
8	14356	34.279278	0
8	14360	34.2906	1
8	14367	34.299526	0
8	14377	34.309568	1
8	14384	34.318494	0
8	14388	34.329096	1
8	14395	34.338022	0
8	14399	34.357824	1
8	14406	34.36675	0
8	14410	34.383812	1
8	14417	34.392738	0
8	14427	34.41286	1
8	14434	34.421786	0
8	14437	34.423728	1
8	14445	34.432654	0
8	14448	34.438596	1
8	14456	34.447522	0
8	14460	34.458984	1
8	14467	34.46791	0
8	14471	34.485032	1
8	14478	34.493958	0
8	14488	34.5076	1
8	14495	34.516526	0
8	14499	34.534208	1
8	14506	34.543134	0
8	14510	34.559816	1
8	14517	34.568742	0
8	14521	34.581364	1
8	14528	34.59029	0
8	14531	34.598852	1
8	14545	34.607778	0
8	14548	34.61666	1
8	14556	34.625586	0
8	14559	34.625988	1
8	14566	34.634914	0
8	14570	34.637076	1
8	14578	34.646002	0
8	14582	34.661884	1
8	14589	34.67081	0
8	14593	34.688452	1
8	14600	34.697378	0
8	14609	34.7028	1
8	14617	34.711726	0
8	14621	34.726288	1
8	14628	34.735214	0
8	14631	34.739296	1
8	14639	34.748222	0
8	14642	34.755964	1
8	14650	34.76489	0
8	14653	34.767032	1
8	14661	34.775958	0
8	14664	34.7838	1
8	14672	34.792726	0
8	14682	34.808168	1
8	14689	34.817094	0
8	14693	34.835256	1
8	14700	34.844182	0
8	14704	34.863844	1
8	14711	34.87277	0
8	14714	34.877512	1
8	14722	34.886438	0
8	14726	34.89666	1
8	14739	34.905586	0
8	14743	34.918968	1
8	14750	34.927894	0
8	14753	34.928636	1
8	14760	34.937562	0
8	14764	34.942804	1
8	14772	34.95173	0
8	14776	34.962492	1
8	14783	34.971418	0
8	14787	34.987	1
8	14794	34.995926	0
8	14804	35.009268	1
8	14811	35.018194	0
8	14815	35.030056	1
8	14822	35.038982	0
8	14825	35.041584	1
8	14833	35.05051	0
8	14836	35.059672	1
8	14844	35.068598	0
8	14847	35.07302	1
8	14855	35.081946	0
8	14858	35.088408	1
8	14866	35.097334	0
8	14876	35.112296	1
8	14883	35.121222	0
8	14887	35.133464	1
8	14894	35.14239	0
8	14898	35.156152	1
8	14905	35.165078	0
8	14909	35.17626	1
8	14916	35.185186	0
8	14919	35.189088	1
8	14927	35.198014	0
8	14936	35.202336	1
8	14944	35.211262	0
8	14947	35.217324	1
8	14955	35.22625	0
8	14958	35.227572	1
8	14966	35.236498	0
8	14970	35.24644	1
8	14977	35.255366	0
8	14980	35.265068	1
8	14988	35.273994	0
8	14992	35.284956	1
8	14999	35.293882	0
8	15002	35.298524	1
8	15016	35.30745	0
8	15019	35.312352	1
8	15027	35.321278	0
8	15031	35.33496	1
8	15038	35.343886	0
8	15041	35.351668	1
8	15049	35.360594	0
8	15052	35.365056	1
8	15060	35.373982	0
8	15063	35.379564	1
8	15071	35.38849	0
8	15081	35.405972	1
8	15088	35.414898	0
8	15092	35.42842	1
8	15099	35.437346	0
8	15103	35.447648	1
8	15110	35.456574	0
8	15113	35.458016	1
8	15121	35.466942	0
8	15125	35.482904	1
8	15132	35.49183	0
8	15135	35.495972	1
8	15149	35.504898	0
8	15152	35.50678	1
8	15160	35.515706	0
8	15164	35.531948	1
8	15171	35.540874	0
8	15174	35.548356	1
8	15182	35.557282	0
8	15185	35.566364	1
8	15193	35.57529	0
8	15196	35.583632	1
8	15204	35.592558	0
8	15214	35.60728	1
8	15221	35.616206	0
8	15224	35.619028	1
8	15232	35.627954	0
8	15235	35.632416	1
8	15243	35.641342	0
8	15247	35.651544	1
8	15254	35.66047	0
8	15257	35.669872	1
8	15265	35.678798	0
8	15268	35.68096	1
8	15276	35.689886	0
8	15279	35.695968	1
8	15293	35.704894	0
8	15297	35.724556	1
8	15304	35.733482	0
8	15308	35.751224	1
8	15315	35.76015	0
8	15318	35.761152	1
8	15326	35.770078	0
8	15329	35.77242	1
8	15337	35.781346	0
8	15340	35.790548	1
8	15348	35.799474	0
8	15357	35.807096	1
8	15365	35.816022	0
8	15369	35.831184	1
8	15376	35.84011	0
8	15380	35.856052	1
8	15387	35.864978	0
8	15390	35.87242	1
8	15398	35.881346	0
8	15402	35.899628	1
8	15415	35.908554	0
8	15419	35.927276	1
8	15426	35.936202	0
8	15430	35.954404	1
8	15437	35.96333	0
8	15440	35.965852	1
8	15448	35.974778	0
8	15451	35.98056	1
8	15459	35.989486	0
8	15469	36.000828	1
8	15476	36.009754	0
8	15479	36.014676	1
8	15487	36.023602	0
8	15491	36.037624	1
8	15498	36.04655	0
8	15502	36.058852	1
8	15509	36.067778	0
8	15512	36.07504	1
8	15520	36.083966	0
8	15530	36.101108	1
8	15537	36.110034	0
8	15540	36.118276	1
8	15548	36.127202	0
8	15552	36.137544	1
8	15559	36.14647	0
8	15563	36.156892	1
8	15570	36.165818	0
8	15573	36.17124	1
8	15581	36.180166	0
8	15584	36.185628	1
8	15592	36.194554	0
8	15595	36.199916	1
8	15609	36.208842	0
8	15613	36.227664	1
8	15620	36.23659	0
8	15624	36.248972	1
8	15631	36.257898	0
8	15634	36.26702	1
8	15642	36.275946	0
8	15646	36.288668	1
8	15653	36.297594	0
8	15663	36.309156	1
8	15670	36.318082	0
8	15674	36.336244	1
8	15681	36.34517	0
8	15684	36.350532	1
8	15692	36.359458	0
8	15695	36.36036	1
8	15703	36.369286	0
8	15707	36.382928	1
8	15714	36.391854	0
8	15717	36.393756	1
8	15731	36.402682	0
8	15735	36.417204	1
8	15742	36.42613	0
8	15745	36.433072	1
8	15753	36.441998	0
8	15756	36.44954	1
8	15764	36.458466	0
8	15767	36.463908	1
8	15775	36.472834	0
8	15779	36.493276	1
8	15792	36.502202	0
8	15796	36.521244	1
8	15803	36.53017	0
8	15806	36.530792	1
8	15813	36.539718	0
8	15818	36.55198	1
8	15825	36.560906	0
8	15828	36.568768	1
8	15836	36.577694	0
8	15840	36.594856	1
8	15853	36.603782	0
8	15857	36.615704	1
8	15864	36.62463	0
8	15867	36.630112	1
8	15875	36.639038	0
8	15878	36.64712	1
8	15886	36.656046	0
8	15890	36.665868	1
8	15897	36.674794	0
8	15900	36.676556	1
8	15908	36.685482	0
8	15911	36.688704	1
8	15919	36.69763	0
8	15929	36.717092	1
8	15936	36.726018	0
8	15940	36.73836	1
8	15947	36.747286	0
8	15951	36.758088	1
8	15958	36.767014	0
8	15962	36.785476	1
8	15969	36.794402	0
8	15979	36.808184	1
8	15986	36.81711	0
8	15989	36.826072	1
8	15997	36.834998	0
8	16000	36.83804	1
8	16008	36.846966	0
8	16012	36.859368	1
8	16019	36.868294	0
8	16023	36.888136	1
8	16030	36.897062	0
8	16039	36.902084	1
8	16047	36.91101	0
8	16050	36.914812	1
8	16058	36.923738	0
8	16062	36.93612	1
8	16069	36.945046	0
8	16072	36.949108	1
8	16080	36.958034	0
8	16083	36.960396	1
8	16091	36.969322	0
8	16094	36.973984	1
8	16102	36.98291	0
8	16106	36.998632	1
8	16119	37.007558	0
8	16122	37.00964	1
8	16130	37.018566	0
8	16133	37.023468	1
8	16141	37.032394	0
8	16144	37.040596	1
8	16152	37.049522	0
8	16156	37.067264	1
8	16163	37.07619	0
8	16166	37.076552	1
8	16173	37.085478	0
8	16184	37.10548	1
8	16191	37.114406	0
8	16194	37.116488	1
8	16202	37.125414	0
8	16205	37.132576	1
8	16213	37.141502	0
8	16216	37.147664	1
8	16224	37.15659	0
8	16228	37.172212	1
8	16235	37.181138	0
8	16239	37.1933	1
8	16252	37.202226	0
8	16256	37.212228	1
8	16263	37.221154	0
8	16267	37.232296	1
8	16274	37.241222	0
8	16277	37.242384	1
8	16285	37.25131	0
8	16288	37.251772	1
8	16295	37.260698	0
8	16300	37.27922	1
8	16307	37.288146	0
8	16317	37.302888	1
8	16324	37.311814	0
8	16328	37.329116	1
8	16335	37.338042	0
8	16338	37.346784	1
8	16346	37.35571	0
8	16350	37.368532	1
8	16357	37.377458	0
8	16360	37.38586	1
8	16368	37.394786	0
8	16378	37.410328	1
8	16385	37.419254	0
8	16388	37.426936	1
8	16396	37.435862	0
8	16400	37.455344	1
8	16407	37.46427	0
8	16411	37.480072	1
8	16418	37.488998	0
8	16428	37.50606	1
8	16435	37.514986	0
8	16438	37.518728	1
8	16446	37.527654	0
8	16449	37.534976	1
8	16457	37.543902	0
8	16461	37.561764	1
8	16468	37.57069	0
8	16471	37.576092	1
8	16479	37.585018	0
8	16483	37.59898	1
8	16496	37.607906	0
8	16500	37.623268	1
8	16507	37.632194	0
8	16511	37.651276	1
8	16518	37.660202	0
8	16522	37.678844	1
8	16529	37.68777	0
8	16539	37.701812	1
8	16546	37.710738	0
8	16549	37.71878	1
8	16557	37.727706	0
8	16560	37.736868	1
8	16568	37.745794	0
8	16572	37.760276	1
8	16579	37.769202	0
8	16583	37.787144	1
8	16590	37.79607	0
8	16599	37.802432	1
8	16607	37.811358	0
8	16611	37.82164	1
8	16618	37.830566	0
8	16621	37.835748	1
8	16629	37.844674	0
8	16633	37.854896	1
8	16640	37.863822	0
8	16644	37.880684	1
8	16651	37.88961	0
8	16654	37.892092	1
8	16668	37.901018	0
8	16671	37.91056	1
8	16679	37.919486	0
8	16682	37.923328	1
8	16690	37.932254	0
8	16693	37.939376	1
8	16701	37.948302	0
8	16705	37.960724	1
8	16712	37.96965	0
8	16716	37.987932	1
8	16723	37.996858	0
8	16733	38.01136	1
8	16740	38.020286	0
8	16744	38.040128	1
8	16751	38.049054	0
8	16754	38.053916	1
8	16762	38.062842	0
8	16765	38.063044	1
8	16772	38.07197	0
8	16776	38.075412	1
8	16784	38.084338	0
8	16787	38.0923	1
8	16801	38.101226	0
8	16804	38.102928	1
8	16812	38.111854	0
8	16816	38.127576	1
8	16823	38.136502	0
8	16827	38.156024	1
8	16834	38.16495	0
8	16838	38.175552	1
8	16845	38.184478	0
8	16855	38.2003	1
8	16862	38.209226	0
8	16866	38.222068	1
8	16873	38.230994	0
8	16876	38.233196	1
8	16884	38.242122	0
8	16888	38.256324	1
8	16895	38.26525	0
8	16899	38.279372	1
8	16906	38.288298	0
8	16909	38.29102	1
8	16917	38.299946	0
8	16927	38.318368	1
8	16934	38.327294	0
8	16937	38.333116	1
8	16945	38.342042	0
8	16948	38.351144	1
8	16956	38.36007	0
8	16960	38.377272	1
8	16967	38.386198	0
8	16977	38.4009	1
8	16984	38.409826	0
8	16988	38.428048	1
8	16995	38.436974	0
8	16999	38.456676	1
8	17006	38.465602	0
8	17009	38.473644	1
8	17017	38.48257	0
8	17020	38.492232	1
8	17034	38.501158	0
8	17038	38.52024	1
8	17045	38.529166	0
8	17049	38.546288	1
8	17056	38.555214	0
8	17059	38.564136	1
8	17067	38.573062	0
8	17070	38.573504	1
8	17077	38.58243	0
8	17081	38.585192	1
8	17089	38.594118	0
8	17092	38.59638	1
8	17106	38.605306	0
8	17109	38.609708	1
8	17117	38.618634	0
8	17120	38.624456	1
8	17128	38.633382	0
8	17132	38.650044	1
8	17139	38.65897	0
8	17143	38.673612	1
8	17150	38.682538	0
8	17154	38.69448	1
8	17167	38.703406	0
8	17171	38.720208	1
8	17178	38.729134	0
8	17182	38.746156	1
8	17189	38.755082	0
8	17192	38.760564	1
8	17200	38.76949	0
8	17203	38.775252	1
8	17211	38.784178	0
8	17214	38.7915	1
8	17228	38.800426	0
8	17232	38.817728	1
8	17239	38.826654	0
8	17243	38.841776	1
8	17250	38.850702	0
8	17253	38.859204	1
8	17261	38.86813	0
8	17265	38.886212	1
8	17272	38.895138	0
8	17282	38.91572	1
8	17289	38.924646	0
8	17292	38.929928	1
8	17300	38.938854	0
8	17304	38.949556	1
8	17311	38.958482	0
8	17315	38.969524	1
8	17322	38.97845	0
8	17325	38.979252	1
8	17332	38.988178	0
8	17336	38.99176	1
8	17350	39.000686	0
8	17354	39.016988	1
8	17361	39.025914	0
8	17364	39.032616	1
8	17372	39.041542	0
8	17375	39.045784	1
8	17383	39.05471	0
8	17386	39.056972	1
8	17394	39.065898	0
8	17398	39.07794	1
8	17405	39.086866	0
8	17415	39.102088	1
8	17422	39.111014	0
8	17426	39.129536	1
8	17433	39.138462	0
8	17436	39.145084	1
8	17444	39.15401	0
8	17447	39.162452	1
8	17455	39.171378	0
8	17459	39.18476	1
8	17466	39.193686	0
8	17469	39.195108	1
8	17483	39.204034	0
8	17486	39.209916	1
8	17494	39.218842	0
8	17497	39.220564	1
8	17505	39.22949	0
8	17508	39.231292	1
8	17516	39.240218	0
8	17520	39.25602	1
8	17527	39.264946	0
8	17531	39.281468	1
8	17538	39.290394	0
8	17548	39.300636	1
8	17555	39.309562	0
8	17559	39.323404	1
8	17566	39.33233	0
8	17569	39.332672	1
8	17576	39.341598	0
8	17581	39.35174	1
8	17588	39.360666	0
8	17592	39.373148	1
8	17599	39.382074	0
8	17603	39.399176	1
8	17616	39.408102	0
8	17619	39.408664	1
8	17626	39.41759	0
8	17631	39.432412	1
8	17638	39.441338	0
8	17642	39.45562	1
8	17649	39.464546	0
8	17652	39.471408	1
8	17660	39.480334	0
8	17663	39.486876	1
8	17671	39.495802	0
8	17674	39.498524	1
8	17688	39.50745	0
8	17692	39.524872	1
8	17699	39.533798	0
8	17702	39.5412	1
8	17710	39.550126	0
8	17714	39.570648	1
8	17721	39.579574	0
8	17724	39.589036	1
8	17732	39.597962	0
8	17741	39.604864	1
8	17749	39.61379	0
8	17752	39.622052	1
8	17760	39.630978	0
8	17764	39.64678	1
8	17771	39.655706	0
8	17775	39.674068	1
8	17782	39.682994	0
8	17786	39.693936	1
8	17799	39.702862	0
8	17802	39.708664	1
8	17810	39.71759	0
8	17813	39.722052	1
8	17821	39.730978	0
8	17824	39.73738	1
8	17832	39.746306	0
8	17836	39.762968	1
8	17843	39.771894	0
8	17846	39.776356	1
8	17854	39.785282	0
8	17864	39.804864	1
8	17871	39.81379	0
8	17875	39.832212	1
8	17882	39.841138	0
8	17885	39.84284	1
8	17893	39.851766	0
8	17897	39.871388	1
8	17904	39.880314	0
8	17908	39.896216	1
8	17921	39.905142	0
8	17925	39.919184	1
8	17932	39.92811	0
8	17935	39.934252	1
8	17943	39.943178	0
8	17946	39.94802	1
8	17954	39.956946	0
8	17957	39.961988	1
8	17965	39.970914	0
8	17968	39.972876	1
8	17976	39.981802	0
8	17979	39.982824	1
8	17987	39.99175	0
8	17997	40.007552	1
8	18004	40.016478	0
8	18008	40.0286	1
8	18015	40.037526	0
8	18019	40.057088	1
8	18026	40.066014	0
8	18030	40.077936	1
8	18037	40.086862	0
8	18041	40.097204	1
8	18054	40.10613	0
8	18058	40.118412	1
8	18065	40.127338	0
8	18068	40.12968	1
8	18076	40.138606	0
8	18080	40.153188	1
8	18087	40.162114	0
8	18091	40.175136	1
8	18098	40.184062	0
8	18102	40.195004	1
8	18115	40.20393	0
8	18118	40.205052	1
8	18126	40.213978	0
8	18130	40.23302	1
8	18137	40.241946	0
8	18140	40.248948	1
8	18148	40.257874	0
8	18152	40.269396	1
8	18159	40.278322	0
8	18163	40.292864	1
8	18176	40.30179	0
8	18179	40.311412	1
8	18187	40.320338	0
8	18191	40.33552	1
8	18198	40.344446	0
8	18201	40.348468	1
8	18209	40.357394	0
8	18213	40.376396	1
8	18220	40.385322	0
8	18223	40.390924	1
8	18231	40.39985	0
8	18240	40.400392	1
8	18247	40.409318	0
8	18251	40.41586	1
8	18259	40.424786	0
8	18263	40.437848	1
8	18270	40.446774	0
8	18273	40.451636	1
8	18281	40.460562	0
8	18285	40.473944	1
8	18292	40.48287	0
8	18295	40.484592	1
8	18303	40.493518	0
8	18306	40.49514	1
8	18320	40.504066	0
8	18324	40.517808	1
8	18331	40.526734	0
8	18335	40.540436	1
8	18342	40.549362	0
8	18346	40.569784	1
8	18353	40.57871	0
8	18357	40.592072	1
8	18370	40.600998	0
8	18373	40.6086	1
8	18381	40.617526	0
8	18384	40.620868	1
8	18392	40.629794	0
8	18395	40.638456	1
8	18403	40.647382	0
8	18406	40.655184	1
8	18414	40.66411	0
8	18417	40.670252	1
8	18425	40.679178	0
8	18429	40.69154	1
8	18442	40.700466	0
8	18446	40.715828	1
8	18453	40.724754	0
8	18457	40.742316	1
8	18464	40.751242	0
8	18468	40.769844	1
8	18475	40.77877	0
8	18479	40.794172	1
8	18492	40.803098	0
8	18495	40.8109	1
8	18503	40.819826	0
8	18507	40.832968	1
8	18514	40.841894	0
8	18517	40.848516	1
8	18525	40.857442	0
8	18528	40.863044	1
8	18536	40.87197	0
8	18540	40.887532	1
8	18547	40.896458	0
8	18557	40.90886	1
8	18564	40.917786	0
8	18567	40.927348	1
8	18575	40.936274	0
8	18578	40.942116	1
8	18586	40.951042	0
8	18590	40.963464	1
8	18597	40.97239	0
8	18601	40.985232	1
8	18608	40.994158	0
8	18611	40.99746	1
8	18625	41.006386	0
8	18628	41.015528	1
8	18636	41.024454	0
8	18639	41.034136	1
8	18647	41.043062	0
8	18650	41.049524	1
8	18658	41.05845	0
8	18662	41.071532	1
8	18669	41.080458	0
8	18673	41.09442	1
8	18686	41.103346	0
8	18690	41.115188	1
8	18697	41.124114	0
8	18700	41.133676	1
8	18708	41.142602	0
8	18712	41.161944	1
8	18719	41.17087	0
8	18723	41.191172	1
8	18736	41.200098	0
8	18740	41.21384	1
8	18747	41.222766	0
8	18750	41.227768	1
8	18758	41.236694	0
8	18762	41.247496	1
8	18769	41.256422	0
8	18773	41.268684	1
8	18780	41.27761	0
8	18784	41.296192	1
8	18797	41.305118	0
8	18801	41.3203	1
8	18808	41.329226	0
8	18812	41.345068	1
8	18819	41.353994	0
8	18822	41.359456	1
8	18830	41.368382	0
8	18834	41.381664	1
8	18841	41.39059	0
8	18844	41.393352	1
8	18858	41.402278	0
8	18862	41.41412	1
8	18869	41.423046	0
8	18873	41.439128	1
8	18880	41.448054	0
8	18883	41.452096	1
8	18891	41.461022	0
8	18894	41.470264	1
8	18902	41.47919	0
8	18905	41.488612	1
8	18913	41.497538	0
8	18922	41.5022	1
8	18930	41.511126	0
8	18933	41.520168	1
8	18941	41.529094	0
8	18945	41.546396	1
8	18952	41.555322	0
8	18955	41.557464	1
8	18963	41.56639	0
8	18966	41.569212	1
8	18974	41.578138	0
8	18977	41.57892	1
8	18984	41.587846	0
8	18988	41.589608	1
8	18996	41.598534	0
8	19006	41.611296	1
8	19013	41.620222	0
8	19017	41.635504	1
8	19024	41.64443	0
8	19027	41.650432	1
8	19035	41.659358	0
8	19039	41.67212	1
8	19046	41.681046	0
8	19049	41.686848	1
8	19057	41.695774	0
8	19060	41.696936	1
8	19074	41.705862	0
8	19078	41.725104	1
8	19085	41.73403	0
8	19089	41.746132	1
8	19096	41.755058	0
8	19100	41.76734	1
8	19107	41.776266	0
8	19110	41.776568	1
8	19117	41.785494	0
8	19121	41.791876	1
8	19135	41.800802	0
8	19139	41.814304	1
8	19146	41.82323	0
8	19150	41.843192	1
8	19157	41.852118	0
8	19160	41.86062	1
8	19168	41.869546	0
8	19171	41.873408	1
8	19179	41.882334	0
8	19189	41.900376	1
8	19196	41.909302	0
8	19200	41.928984	1
8	19207	41.93791	0
8	19210	41.947572	1
8	19218	41.956498	0
8	19221	41.95886	1
8	19229	41.967786	0
8	19233	41.981048	1
8	19240	41.989974	0
8	19250	42.009476	1
8	19257	42.018402	0
8	19260	42.023484	1
8	19268	42.03241	0
8	19272	42.052632	1
8	19279	42.061558	0
8	19282	42.06184	1
8	19289	42.070766	0
8	19294	42.089068	1
8	19301	42.097994	0
8	19310	42.103896	1
8	19318	42.112822	0
8	19322	42.127904	1
8	19329	42.13683	0
8	19332	42.138472	1
8	19340	42.147398	0
8	19343	42.15196	1
8	19351	42.160886	0
8	19354	42.161828	1
8	19362	42.170754	0
8	19365	42.170896	1
8	19372	42.179822	0
8	19376	42.184204	1
8	19384	42.19313	0
8	19387	42.195452	1
8	19401	42.204378	0
8	19404	42.20862	1
8	19412	42.217546	0
8	19415	42.220988	1
8	19423	42.229914	0
8	19426	42.238676	1
8	19434	42.247602	0
8	19438	42.259204	1
8	19445	42.26813	0
8	19448	42.270332	1
8	19456	42.279258	0
8	19460	42.29832	1
8	19473	42.307246	0
8	19477	42.317268	1
8	19484	42.326194	0
8	19488	42.345776	1
8	19495	42.354702	0
8	19499	42.368784	1
8	19506	42.37771	0
8	19510	42.395592	1
8	19523	42.404518	0
8	19527	42.42482	1
8	19534	42.433746	0
8	19537	42.436528	1
8	19545	42.445454	0
8	19549	42.457936	1
8	19556	42.466862	0
8	19560	42.477964	1
8	19567	42.48689	0
8	19570	42.493752	1
8	19584	42.502678	0
8	19587	42.50612	1
8	19595	42.515046	0
8	19599	42.529868	1
8	19606	42.538794	0
8	19609	42.546396	1
8	19617	42.555322	0
8	19621	42.565344	1
8	19628	42.57427	0
8	19631	42.580232	1
8	19639	42.589158	0
8	19649	42.60818	1
8	19656	42.617106	0
8	19660	42.628468	1
8	19667	42.637394	0
8	19670	42.641236	1
8	19678	42.650162	0
8	19681	42.655604	1
8	19689	42.66453	0
8	19692	42.665672	1
8	19700	42.674598	0
8	19704	42.68948	1
8	19711	42.698406	0
8	19720	42.702068	1
8	19728	42.710994	0
8	19732	42.721616	1
8	19739	42.730542	0
8	19743	42.744884	1
8	19750	42.75381	0
8	19754	42.766672	1
8	19761	42.775598	0
8	19765	42.78572	1
8	19772	42.794646	0
8	19782	42.813428	1
8	19789	42.822354	0
8	19792	42.829656	1
8	19800	42.838582	0
8	19803	42.839444	1
8	19811	42.84837	0
8	19814	42.854232	1
8	19822	42.863158	0
8	19826	42.87582	1
8	19833	42.884746	0
8	19836	42.887828	1
8	19844	42.896754	0
8	19853	42.905336	1
8	19861	42.914262	0
8	19864	42.915104	1
8	19871	42.92403	0
8	19876	42.939812	1
8	19883	42.948738	0
8	19886	42.94946	1
8	19893	42.958386	0
8	19898	42.977468	1
8	19905	42.986394	0
8	19908	42.987736	1
8	19916	42.996662	0
8	19926	43.017124	1
8	19933	43.02605	0
8	19937	43.042892	1
8	19944	43.051818	0
8	19948	43.0679	1
8	19955	43.076826	0
8	19958	43.080068	1
8	19966	43.088994	0
8	19969	43.091756	1
8	19983	43.100682	0
8	19987	43.115964	1
8	19994	43.12489	0
8	19997	43.133732	1
8	20005	43.142658	0
8	20009	43.16052	1
8	20016	43.169446	0
8	20019	43.177808	1
8	20027	43.186734	0
8	20030	43.191436	1
8	20044	43.200362	0
8	20047	43.206044	1
8	20055	43.21497	0
8	20059	43.228692	1
8	20066	43.237618	0
8	20070	43.25268	1
8	20077	43.261606	0
8	20080	43.268348	1
8	20088	43.277274	0
8	20092	43.288236	1
8	20099	43.297162	0
8	20108	43.302124	1
8	20116	43.31105	0
8	20120	43.330332	1
8	20127	43.339258	0
8	20131	43.3508	1
8	20138	43.359726	0
8	20142	43.375708	1
8	20149	43.384634	0
8	20152	43.387056	1
8	20160	43.395982	0
8	20169	43.401564	1
8	20177	43.41049	0
8	20181	43.427992	1
8	20188	43.436918	0
8	20192	43.45694	1
8	20199	43.465866	0
8	20203	43.478708	1
8	20210	43.487634	0
8	20213	43.488036	1
8	20220	43.496962	0
8	20231	43.512484	1
8	20238	43.52141	0
8	20241	43.526712	1
8	20249	43.535638	0
8	20253	43.55246	1
8	20260	43.561386	0
8	20263	43.564468	1
8	20271	43.573394	0
8	20275	43.583536	1
8	20282	43.592462	0
8	20292	43.607844	1
8	20299	43.61677	0
8	20303	43.630312	1
8	20310	43.639238	0
8	20314	43.6504	1
8	20321	43.659326	0
8	20324	43.668848	1
8	20332	43.677774	0
8	20336	43.689696	1
8	20343	43.698622	0
8	20353	43.717664	1
8	20360	43.72659	0
8	20363	43.734152	1
8	20371	43.743078	0
8	20374	43.74602	1
8	20382	43.754946	0
8	20385	43.759908	1
8	20393	43.768834	0
8	20397	43.788176	1
8	20404	43.797102	0
8	20413	43.802384	1
8	20421	43.81131	0
8	20425	43.827012	1
8	20432	43.835938	0
8	20436	43.85356	1
8	20443	43.862486	0
8	20446	43.868388	1
8	20454	43.877314	0
8	20458	43.887656	1
8	20465	43.896582	0
8	20474	43.902404	1
8	20482	43.91133	0
8	20486	43.925592	1
8	20493	43.934518	0
8	20497	43.9493	1
8	20504	43.958226	0
8	20507	43.959668	1
8	20515	43.968594	0
8	20518	43.972836	1
8	20526	43.981762	0
8	20529	43.988684	1
8	20537	43.99761	0
8	20547	44.008932	1
8	20554	44.017858	0
8	20557	44.0264	1
8	20565	44.035326	0
8	20568	44.039448	1
8	20576	44.048374	0
8	20579	44.054696	1
8	20587	44.063622	0
8	20591	44.077964	1
8	20598	44.08689	0
8	20608	44.100012	1
8	20615	44.108938	0
8	20619	44.1248	1
8	20626	44.133726	0
8	20629	44.137008	1
8	20637	44.145934	0
8	20641	44.159936	1
8	20648	44.168862	0
8	20652	44.188124	1
8	20659	44.19705	0
8	20669	44.208272	1
8	20676	44.217198	0
8	20680	44.23018	1
8	20687	44.239106	0
8	20691	44.255188	1
8	20698	44.264114	0
8	20701	44.272276	1
8	20709	44.281202	0
8	20712	44.282044	1
8	20719	44.29097	0
8	20730	44.308872	1
8	20737	44.317798	0
8	20741	44.33618	1
8	20748	44.345106	0
8	20752	44.355948	1
8	20759	44.364874	0
[...]
73	45568	40.4	0
73	45568	40.5	0
73	45568	40.6	0
73	45568	40.7	0
73	45568	40.8	0
73	45568	40.9	0
73	45568	41	0
73	45568	41.1	0
73	45568	41.2	0
73	45568	41.3	0
73	45568	41.4	0
73	45568	41.5	0
73	45568	41.6	0
73	45568	41.7	0
73	45568	41.8	0
73	45568	41.9	0
73	45568	42	0
73	45568	42.1	0
73	45568	42.2	0
73	45568	42.3	0
73	45568	42.4	0
73	45568	42.5	0
73	45568	42.6	0
73	45568	42.7	0
73	45568	42.8	0
73	45568	42.9	0
73	45568	43	0
73	45568	43.1	0
73	45568	43.2	0
73	45568	43.3	0
73	45568	43.4	0
73	45568	43.5	0
73	45568	43.6	0
73	45568	43.7	0
73	45568	43.8	0
73	45568	43.9	0
73	45568	44	0
73	45568	44.1	0
73	45568	44.2	0
73	45568	44.3	0
73	45568	44.4	0
73	45568	44.5	0
73	45568	44.6	0
73	45568	44.7	0
73	45568	44.8	0
73	45568	44.9	0
73	45568	45	0
73	45568	45.1	0
73	45568	45.2	0
73	45568	45.3	0
73	45568	45.4	0
73	45568	45.5	0
73	45568	45.6	0
73	45568	45.7	0
73	45568	45.8	0
73	45568	45.9	0
73	45568	46	0
73	45568	46.1	0
73	45568	46.2	0
73	45568	46.3	0
73	45568	46.4	0
73	45568	46.5	0
73	45568	46.6	0
73	45568	46.7	0
73	45568	46.8	0
73	45568	46.9	0
73	45568	47	0
73	45568	47.1	0
73	45568	47.2	0
73	45568	47.3	0
73	45568	47.4	0
73	45568	47.5	0
73	45568	47.6	0
73	45568	47.7	0
73	45568	47.8	0
73	45568	47.9	0
73	45568	48	0
73	45568	48.1	0
73	45568	48.2	0
73	45568	48.3	0
73	45568	48.4	0
73	45568	48.5	0
73	45568	48.6	0
73	45568	48.7	0
73	45568	48.8	0
73	45568	48.9	0
73	45568	49	0
73	45568	49.1	0
73	45568	49.2	0
73	45568	49.3	0
73	45568	49.4	0
73	45568	49.5	0
73	45568	49.6	0
73	45568	49.7	0
73	45568	49.8	0
73	45568	49.9	0
73	45568	50	0
73	45568	50.1	0
73	45568	50.2	0
73	45568	50.3	0
73	45568	50.4	0
73	45568	50.5	0
73	45568	50.6	0
73	45568	50.7	0
73	45568	50.8	0
73	45568	50.9	0
73	45568	51	0
73	45568	51.1	0
73	45568	51.2	0
73	45568	51.3	0
73	45568	51.4	0
73	45568	51.5	0
73	45568	51.6	0
73	45568	51.7	0
73	45568	51.8	0
73	45568	51.9	0
73	45568	52	0
73	45568	52.1	0
73	45568	52.2	0
73	45568	52.3	0
73	45568	52.4	0
73	45568	52.5	0
73	45568	52.6	0
73	45568	52.7	0
73	45568	52.8	0
73	45568	52.9	0
73	45568	53	0
73	45568	53.1	0
73	45568	53.2	0
73	45568	53.3	0
73	45568	53.4	0
73	45568	53.5	0
73	45568	53.6	0
73	45568	53.7	0
73	45568	53.8	0
73	45568	53.9	0
73	45568	54	0
73	45568	54.1	0
73	45568	54.2	0
73	45568	54.3	0
73	45568	54.4	0
73	45568	54.5	0
73	45568	54.6	0
73	45568	54.7	0
73	45568	54.8	0
73	45568	54.9	0
73	45568	55	0
73	45568	55.1	0
73	45568	55.2	0
73	45568	55.3	0
73	45568	55.4	0
73	45568	55.5	0
73	45568	55.6	0
73	45568	55.7	0
73	45568	55.8	0
73	45568	55.9	0
73	45568	56	0
73	45568	56.1	0
73	45568	56.2	0
73	45568	56.3	0
73	45568	56.4	0
73	45568	56.5	0
73	45568	56.6	0
73	45568	56.7	0
73	45568	56.8	0
73	45568	56.9	0
73	45568	57	0
73	45568	57.1	0
73	45568	57.2	0
73	45568	57.3	0
73	45568	57.4	0
73	45568	57.5	0
73	45568	57.6	0
73	45568	57.7	0
73	45568	57.8	0
73	45568	57.9	0
73	45568	58	0
73	45568	58.1	0
73	45568	58.2	0
73	45568	58.3	0
73	45568	58.4	0
73	45568	58.5	0
73	45568	58.6	0
73	45568	58.7	0
73	45568	58.8	0
73	45568	58.9	0
73	45568	59	0
73	45568	59.1	0
73	45568	59.2	0
73	45568	59.3	0
73	45568	59.4	0
73	45568	59.5	0
73	45568	59.6	0
73	45568	59.7	0
73	45568	59.8	0
73	45568	59.9	0
73	45568	60	0
73	45568	60.1	0
73	45568	60.2	0
73	45568	60.3	0
73	45568	60.4	0
73	45568	60.5	0
73	45568	60.6	0
73	45568	60.7	0
73	45568	60.8	0
73	45568	60.9	0
73	45568	61	0
73	45568	61.1	0
73	45568	61.2	0
73	45568	61.3	0
73	45568	61.4	0
73	45568	61.5	0
73	45568	61.6	0
73	45568	61.7	0
73	45568	61.8	0
73	45568	61.9	0
73	45568	62	0
73	45568	62.1	0
73	45568	62.2	0
73	45568	62.3	0
73	45568	62.4	0
73	45568	62.5	0
73	45568	62.6	0
73	45568	62.7	0
73	45568	62.8	0
73	45568	62.9	0
73	45568	63	0
73	45568	63.1	0
73	45568	63.2	0
73	45568	63.3	0
73	45568	63.4	0
73	45568	63.5	0
73	45568	63.6	0
73	45568	63.7	0
73	45568	63.8	0
73	45568	63.9	0
73	45568	64	0
73	45568	64.1	0
73	45568	64.2	0
73	45568	64.3	0
73	45568	64.4	0
73	45568	64.5	0
73	45568	64.6	0
73	45568	64.7	0
73	45568	64.8	0
73	45568	64.9	0
73	45568	65	0
73	45568	65.1	0
73	45568	65.2	0
73	45568	65.3	0
73	45568	65.4	0
73	45568	65.5	0
73	45568	65.6	0
73	45568	65.7	0
73	45568	65.8	0
73	45568	65.9	0
73	45568	66	0
73	45568	66.1	0
73	45568	66.2	0
73	45568	66.3	0
73	45568	66.4	0
73	45568	66.5	0
73	45568	66.6	0
73	45568	66.7	0
73	45568	66.8	0
73	45568	66.9	0
73	45568	67	0
73	45568	67.1	0
73	45568	67.2	0
73	45568	67.3	0
73	45568	67.4	0
73	45568	67.5	0
73	45568	67.6	0
73	45568	67.7	0
73	45568	67.8	0
73	45568	67.9	0
73	45568	68	0
73	45568	68.1	0
73	45568	68.2	0
73	45568	68.3	0
73	45568	68.4	0
73	45568	68.5	0
73	45568	68.6	0
73	45568	68.7	0
73	45568	68.8	0
73	45568	68.9	0
73	45568	69	0
73	45568	69.1	0
73	45568	69.2	0
73	45568	69.3	0
73	45568	69.4	0
73	45568	69.5	0
73	45568	69.6	0
73	45568	69.7	0
73	45568	69.8	0
73	45568	69.9	0
73	45568	70	0
73	45568	70.1	0
73	45568	70.2	0
73	45568	70.3	0
73	45568	70.4	0
73	45568	70.5	0
73	45568	70.6	0
73	45568	70.7	0
73	45568	70.8	0
73	45568	70.9	0
73	45568	71	0
73	45568	71.1	0
73	45568	71.2	0
73	45568	71.3	0
73	45568	71.4	0
73	45568	71.5	0
73	45568	71.6	0
73	45568	71.7	0
73	45568	71.8	0
73	45568	71.9	0
73	45568	72	0
73	45568	72.1	0
73	45568	72.2	0
73	45568	72.3	0
73	45568	72.4	0
73	45568	72.5	0
73	45568	72.6	0
73	45568	72.7	0
73	45568	72.8	0
73	45568	72.9	0
73	45568	73	0
73	45568	73.1	0
73	45568	73.2	0
73	45568	73.3	0
73	45568	73.4	0
73	45568	73.5	0
73	45568	73.6	0
73	45568	73.7	0
73	45568	73.8	0
73	45568	73.9	0
73	45568	74	0
73	45568	74.1	0
73	45568	74.2	0
73	45568	74.3	0
73	45568	74.4	0
73	45568	74.5	0
73	45568	74.6	0
73	45568	74.7	0
73	45568	74.8	0
73	45568	74.9	0
73	45568	75	0
73	45568	75.1	0
73	45568	75.2	0
73	45568	75.3	0
73	45568	75.4	0
73	45568	75.5	0
73	45568	75.6	0
73	45568	75.7	0
73	45568	75.8	0
73	45568	75.9	0
73	45568	76	0
73	45568	76.1	0
73	45568	76.2	0
73	45568	76.3	0
73	45568	76.4	0
73	45568	76.5	0
73	45568	76.6	0
73	45568	76.7	0
73	45568	76.8	0
73	45568	76.9	0
73	45568	77	0
73	45568	77.1	0
73	45568	77.2	0
73	45568	77.3	0
73	45568	77.4	0
73	45568	77.5	0
73	45568	77.6	0
73	45568	77.7	0
73	45568	77.8	0
73	45568	77.9	0
73	45568	78	0
73	45568	78.1	0
73	45568	78.2	0
73	45568	78.3	0
73	45568	78.4	0
73	45568	78.5	0
73	45568	78.6	0
73	45568	78.7	0
73	45568	78.8	0
73	45568	78.9	0
73	45568	79	0
73	45568	79.1	0
73	45568	79.2	0
73	45568	79.3	0
73	45568	79.4	0
73	45568	79.5	0
73	45568	79.6	0
73	45568	79.7	0
73	45568	79.8	0
73	45568	79.9	0
73	45568	80	0
73	45568	80.1	0
73	45568	80.2	0
73	45568	80.3	0
73	45568	80.4	0
73	45568	80.5	0
73	45568	80.6	0
73	45568	80.7	0
73	45568	80.8	0
73	45568	80.9	0
73	45568	81	0
73	45568	81.1	0
73	45568	81.2	0
73	45568	81.3	0
73	45568	81.4	0
73	45568	81.5	0
73	45568	81.6	0
73	45568	81.7	0
73	45568	81.8	0
73	45568	81.9	0
73	45568	82	0
73	45568	82.1	0
73	45568	82.2	0
73	45568	82.3	0
73	45568	82.4	0
73	45568	82.5	0
73	45568	82.6	0
73	45568	82.7	0
73	45568	82.8	0
73	45568	82.9	0
73	45568	83	0
73	45568	83.1	0
73	45568	83.2	0
73	45568	83.3	0
73	45568	83.4	0
73	45568	83.5	0
73	45568	83.6	0
73	45568	83.640902	0
74	45568	0.1	0
74	45568	0.2	0
74	45568	0.3	0
74	45568	0.4	0
74	45568	0.5	0
74	45568	0.6	0
74	45568	0.7	0
74	45568	0.8	0
74	45568	0.9	0
74	45568	1	0
74	45568	1.1	0
74	45568	1.2	0
74	45568	1.3	0
74	45568	1.4	0
74	45568	1.5	0
74	45568	1.6	0
74	45568	1.7	0
74	45568	1.8	0
74	45568	1.9	0
74	45568	2	0
74	45568	2.1	0
74	45568	2.2	0
74	45568	2.3	0
74	45568	2.4	0
74	45568	2.5	0
74	45568	2.6	0
74	45568	2.7	0
74	45568	2.8	0
74	45568	2.9	0
74	45568	3	0
74	45568	3.1	0
74	45568	3.2	0
74	45568	3.3	0
74	45568	3.4	0
74	45568	3.5	0
74	45568	3.6	0
74	45568	3.7	0
74	45568	3.8	0
74	45568	3.9	0
74	45568	4	0
74	45568	4.1	0
74	45568	4.2	0
74	45568	4.3	0
74	45568	4.4	0
74	45568	4.5	0
74	45568	4.6	0
74	45568	4.7	0
74	45568	4.8	0
74	45568	4.9	0
74	45568	5	0
74	45568	5.1	0
74	45568	5.2	0
74	45568	5.3	0
74	45568	5.4	0
74	45568	5.5	0
74	45568	5.6	0
74	45568	5.7	0
74	45568	5.8	0
74	45568	5.9	0
74	45568	6	0
74	45568	6.1	0
74	45568	6.2	0
74	45568	6.3	0
74	45568	6.4	0
74	45568	6.5	0
74	45568	6.6	0
74	45568	6.7	0
74	45568	6.8	0
74	45568	6.9	0
74	45568	7	0
74	45568	7.1	0
74	45568	7.2	0
74	45568	7.3	0
74	45568	7.4	0
74	45568	7.5	0
74	45568	7.6	0
74	45568	7.7	0
74	45568	7.8	0
74	45568	7.9	0
74	45568	8	0
74	45568	8.1	0
74	45568	8.2	0
74	45568	8.3	0
74	45568	8.4	0
74	45568	8.5	0
74	45568	8.6	0
74	45568	8.7	0
74	45568	8.8	0
74	45568	8.9	0
74	45568	9	0
74	45568	9.1	0
74	45568	9.2	0
74	45568	9.3	0
74	45568	9.4	0
74	45568	9.5	0
74	45568	9.6	0
74	45568	9.7	0
74	45568	9.8	0
74	45568	9.9	0
74	45568	10	0
74	45568	10.1	0
74	45568	10.2	0
74	45568	10.3	0
74	45568	10.4	0
74	45568	10.5	0
74	45568	10.6	0
74	45568	10.7	0
74	45568	10.8	0
74	45568	10.9	0
74	45568	11	0
74	45568	11.1	0
74	45568	11.2	0
74	45568	11.3	0
74	45568	11.4	0
74	45568	11.5	0
74	45568	11.6	0
74	45568	11.7	0
74	45568	11.8	0
74	45568	11.9	0
74	45568	12	0
74	45568	12.1	0
74	45568	12.2	0
74	45568	12.3	0
74	45568	12.4	0
74	45568	12.5	0
74	45568	12.6	0
74	45568	12.7	0
74	45568	12.8	0
74	45568	12.9	0
74	45568	13	0
74	45568	13.1	0
74	45568	13.2	0
74	45568	13.3	0
74	45568	13.4	0
74	45568	13.5	0
74	45568	13.6	0
74	45568	13.7	0
74	45568	13.8	0
74	45568	13.9	0
74	45568	14	0
74	45568	14.1	0
74	45568	14.2	0
74	45568	14.3	0
74	45568	14.4	0
74	45568	14.5	0
74	45568	14.6	0
74	45568	14.7	0
74	45568	14.8	0
74	45568	14.9	0
74	45568	15	0
74	45568	15.1	0
74	45568	15.2	0
74	45568	15.3	0
74	45568	15.4	0
74	45568	15.5	0
74	45568	15.6	0
74	45568	15.7	0
74	45568	15.8	0
74	45568	15.9	0
74	45568	16	0
74	45568	16.1	0
74	45568	16.2	0
74	45568	16.3	0
74	45568	16.4	0
74	45568	16.5	0
74	45568	16.6	0
74	45568	16.7	0
74	45568	16.8	0
74	45568	16.9	0
74	45568	17	0
74	45568	17.1	0
74	45568	17.2	0
74	45568	17.3	0
74	45568	17.4	0
74	45568	17.5	0
74	45568	17.6	0
74	45568	17.7	0
74	45568	17.8	0
74	45568	17.9	0
74	45568	18	0
74	45568	18.1	0
74	45568	18.2	0
74	45568	18.3	0
74	45568	18.4	0
74	45568	18.5	0
74	45568	18.6	0
74	45568	18.7	0
74	45568	18.8	0
74	45568	18.9	0
74	45568	19	0
74	45568	19.1	0
74	45568	19.2	0
74	45568	19.3	0
74	45568	19.4	0
74	45568	19.5	0
74	45568	19.6	0
74	45568	19.7	0
74	45568	19.8	0
74	45568	19.9	0
74	45568	20	0
74	45568	20.1	0
74	45568	20.2	0
74	45568	20.3	0
74	45568	20.4	0
74	45568	20.5	0
74	45568	20.6	0
74	45568	20.7	0
74	45568	20.8	0
74	45568	20.9	0
74	45568	21	0
74	45568	21.1	0
74	45568	21.2	0
74	45568	21.3	0
74	45568	21.4	0
74	45568	21.5	0
74	45568	21.6	0
74	45568	21.7	0
74	45568	21.8	0
74	45568	21.9	0
74	45568	22	0
74	45568	22.1	0
74	45568	22.2	0
74	45568	22.3	0
74	45568	22.4	0
74	45568	22.5	0
74	45568	22.6	0
74	45568	22.7	0
74	45568	22.8	0
74	45568	22.9	0
74	45568	23	0
74	45568	23.1	0
74	45568	23.2	0
74	45568	23.3	0
74	45568	23.4	0
74	45568	23.5	0
74	45568	23.6	0
74	45568	23.7	0
74	45568	23.8	0
74	45568	23.9	0
74	45568	24	0
74	45568	24.1	0
74	45568	24.2	0
74	45568	24.3	0
74	45568	24.4	0
74	45568	24.5	0
74	45568	24.6	0
74	45568	24.7	0
74	45568	24.8	0
74	45568	24.9	0
74	45568	25	0
74	45568	25.1	0
74	45568	25.2	0
74	45568	25.3	0
74	45568	25.4	0
74	45568	25.5	0
74	45568	25.6	0
74	45568	25.7	0
74	45568	25.8	0
74	45568	25.9	0
74	45568	26	0
74	45568	26.1	0
74	45568	26.2	0
74	45568	26.3	0
74	45568	26.4	0
74	45568	26.5	0
74	45568	26.6	0
74	45568	26.7	0
74	45568	26.8	0
74	45568	26.9	0
74	45568	27	0
74	45568	27.1	0
74	45568	27.2	0
74	45568	27.3	0
74	45568	27.4	0
74	45568	27.5	0
74	45568	27.6	0
74	45568	27.7	0
74	45568	27.8	0
74	45568	27.9	0
74	45568	28	0
74	45568	28.1	0
74	45568	28.2	0
74	45568	28.3	0
74	45568	28.4	0
74	45568	28.5	0
74	45568	28.6	0
74	45568	28.7	0
74	45568	28.8	0
74	45568	28.9	0
74	45568	29	0
74	45568	29.1	0
74	45568	29.2	0
74	45568	29.3	0
74	45568	29.4	0
74	45568	29.5	0
74	45568	29.6	0
74	45568	29.7	0
74	45568	29.8	0
74	45568	29.9	0
74	45568	30	0
74	45568	30.1	0
74	45568	30.2	0
74	45568	30.3	0
74	45568	30.4	0
74	45568	30.5	0
74	45568	30.6	0
74	45568	30.7	0
74	45568	30.8	0
74	45568	30.9	0
74	45568	31	0
74	45568	31.1	0
74	45568	31.2	0
74	45568	31.3	0
74	45568	31.4	0
74	45568	31.5	0
74	45568	31.6	0
74	45568	31.7	0
74	45568	31.8	0
74	45568	31.9	0
74	45568	32	0
74	45568	32.1	0
74	45568	32.2	0
74	45568	32.3	0
74	45568	32.4	0
74	45568	32.5	0
74	45568	32.6	0
74	45568	32.7	0
74	45568	32.8	0
74	45568	32.9	0
74	45568	33	0
74	45568	33.1	0
74	45568	33.2	0
74	45568	33.3	0
74	45568	33.4	0
74	45568	33.5	0
74	45568	33.6	0
74	45568	33.7	0
74	45568	33.8	0
74	45568	33.9	0
74	45568	34	0
74	45568	34.1	0
74	45568	34.2	0
74	45568	34.3	0
74	45568	34.4	0
74	45568	34.5	0
74	45568	34.6	0
74	45568	34.7	0
74	45568	34.8	0
74	45568	34.9	0
74	45568	35	0
74	45568	35.1	0
74	45568	35.2	0
74	45568	35.3	0
74	45568	35.4	0
74	45568	35.5	0
74	45568	35.6	0
74	45568	35.7	0
74	45568	35.8	0
74	45568	35.9	0
74	45568	36	0
74	45568	36.1	0
74	45568	36.2	0
74	45568	36.3	0
74	45568	36.4	0
74	45568	36.5	0
74	45568	36.6	0
74	45568	36.7	0
74	45568	36.8	0
74	45568	36.9	0
74	45568	37	0
74	45568	37.1	0
74	45568	37.2	0
74	45568	37.3	0
74	45568	37.4	0
74	45568	37.5	0
74	45568	37.6	0
74	45568	37.7	0
74	45568	37.8	0
74	45568	37.9	0
74	45568	38	0
74	45568	38.1	0
74	45568	38.2	0
74	45568	38.3	0
74	45568	38.4	0
74	45568	38.5	0
74	45568	38.6	0
74	45568	38.7	0
74	45568	38.8	0
74	45568	38.9	0
74	45568	39	0
74	45568	39.1	0
74	45568	39.2	0
74	45568	39.3	0
74	45568	39.4	0
74	45568	39.5	0
74	45568	39.6	0
74	45568	39.7	0
74	45568	39.8	0
74	45568	39.9	0
74	45568	40	0
74	45568	40.1	0
74	45568	40.2	0
74	45568	40.3	0
74	45568	40.4	0
74	45568	40.5	0
74	45568	40.6	0
74	45568	40.7	0
74	45568	40.8	0
74	45568	40.9	0
74	45568	41	0
74	45568	41.1	0
74	45568	41.2	0
74	45568	41.3	0
74	45568	41.4	0
74	45568	41.5	0
74	45568	41.6	0
74	45568	41.7	0
74	45568	41.8	0
74	45568	41.9	0
74	45568	42	0
74	45568	42.1	0
74	45568	42.2	0
74	45568	42.3	0
74	45568	42.4	0
74	45568	42.5	0
74	45568	42.6	0
74	45568	42.7	0
74	45568	42.8	0
74	45568	42.9	0
74	45568	43	0
74	45568	43.1	0
74	45568	43.2	0
74	45568	43.3	0
74	45568	43.4	0
74	45568	43.5	0
74	45568	43.6	0
74	45568	43.7	0
74	45568	43.8	0
74	45568	43.9	0
74	45568	44	0
74	45568	44.1	0
74	45568	44.2	0
74	45568	44.3	0
74	45568	44.4	0
74	45568	44.5	0
74	45568	44.6	0
74	45568	44.7	0
74	45568	44.8	0
74	45568	44.9	0
74	45568	45	0
74	45568	45.1	0
74	45568	45.2	0
74	45568	45.3	0
74	45568	45.4	0
74	45568	45.5	0
74	45568	45.6	0
74	45568	45.7	0
74	45568	45.8	0
74	45568	45.9	0
74	45568	46	0
74	45568	46.1	0
74	45568	46.2	0
74	45568	46.3	0
74	45568	46.4	0
74	45568	46.5	0
74	45568	46.6	0
74	45568	46.7	0
74	45568	46.8	0
74	45568	46.9	0
74	45568	47	0
74	45568	47.1	0
74	45568	47.2	0
74	45568	47.3	0
74	45568	47.4	0
74	45568	47.5	0
74	45568	47.6	0
74	45568	47.7	0
74	45568	47.8	0
74	45568	47.9	0
74	45568	48	0
74	45568	48.1	0
74	45568	48.2	0
74	45568	48.3	0
74	45568	48.4	0
74	45568	48.5	0
74	45568	48.6	0
74	45568	48.7	0
74	45568	48.8	0
74	45568	48.9	0
74	45568	49	0
74	45568	49.1	0
74	45568	49.2	0
74	45568	49.3	0
74	45568	49.4	0
74	45568	49.5	0
74	45568	49.6	0
74	45568	49.7	0
74	45568	49.8	0
74	45568	49.9	0
74	45568	50	0
74	45568	50.1	0
74	45568	50.2	0
74	45568	50.3	0
74	45568	50.4	0
74	45568	50.5	0
74	45568	50.6	0
74	45568	50.7	0
74	45568	50.8	0
74	45568	50.9	0
74	45568	51	0
74	45568	51.1	0
74	45568	51.2	0
74	45568	51.3	0
74	45568	51.4	0
74	45568	51.5	0
74	45568	51.6	0
74	45568	51.7	0
74	45568	51.8	0
74	45568	51.9	0
74	45568	52	0
74	45568	52.1	0
74	45568	52.2	0
74	45568	52.3	0
74	45568	52.4	0
74	45568	52.5	0
74	45568	52.6	0
74	45568	52.7	0
74	45568	52.8	0
74	45568	52.9	0
74	45568	53	0
74	45568	53.1	0
74	45568	53.2	0
74	45568	53.3	0
74	45568	53.4	0
74	45568	53.5	0
74	45568	53.6	0
74	45568	53.7	0
74	45568	53.8	0
74	45568	53.9	0
74	45568	54	0
74	45568	54.1	0
74	45568	54.2	0
74	45568	54.3	0
74	45568	54.4	0
74	45568	54.5	0
74	45568	54.6	0
74	45568	54.7	0
74	45568	54.8	0
74	45568	54.9	0
74	45568	55	0
74	45568	55.1	0
74	45568	55.2	0
74	45568	55.3	0
74	45568	55.4	0
74	45568	55.5	0
74	45568	55.6	0
74	45568	55.7	0
74	45568	55.8	0
74	45568	55.9	0
74	45568	56	0
74	45568	56.1	0
74	45568	56.2	0
74	45568	56.3	0
74	45568	56.4	0
74	45568	56.5	0
74	45568	56.6	0
74	45568	56.7	0
74	45568	56.8	0
74	45568	56.9	0
74	45568	57	0
74	45568	57.1	0
74	45568	57.2	0
74	45568	57.3	0
74	45568	57.4	0
74	45568	57.5	0
74	45568	57.6	0
74	45568	57.7	0
74	45568	57.8	0
74	45568	57.9	0
74	45568	58	0
74	45568	58.1	0
74	45568	58.2	0
74	45568	58.3	0
74	45568	58.4	0
74	45568	58.5	0
74	45568	58.6	0
74	45568	58.7	0
74	45568	58.8	0
74	45568	58.9	0
74	45568	59	0
74	45568	59.1	0
74	45568	59.2	0
74	45568	59.3	0
74	45568	59.4	0
74	45568	59.5	0
74	45568	59.6	0
74	45568	59.7	0
74	45568	59.8	0
74	45568	59.9	0
74	45568	60	0
74	45568	60.1	0
74	45568	60.2	0
74	45568	60.3	0
74	45568	60.4	0
74	45568	60.5	0
74	45568	60.6	0
74	45568	60.7	0
74	45568	60.8	0
74	45568	60.9	0
74	45568	61	0
74	45568	61.1	0
74	45568	61.2	0
74	45568	61.3	0
74	45568	61.4	0
74	45568	61.5	0
74	45568	61.6	0
74	45568	61.7	0
74	45568	61.8	0
74	45568	61.9	0
74	45568	62	0
74	45568	62.1	0
74	45568	62.2	0
74	45568	62.3	0
74	45568	62.4	0
74	45568	62.5	0
74	45568	62.6	0
74	45568	62.7	0
74	45568	62.8	0
74	45568	62.9	0
74	45568	63	0
74	45568	63.1	0
74	45568	63.2	0
74	45568	63.3	0
74	45568	63.4	0
74	45568	63.5	0
74	45568	63.6	0
74	45568	63.7	0
74	45568	63.8	0
74	45568	63.9	0
74	45568	64	0
74	45568	64.1	0
74	45568	64.2	0
74	45568	64.3	0
74	45568	64.4	0
74	45568	64.5	0
74	45568	64.6	0
74	45568	64.7	0
74	45568	64.8	0
74	45568	64.9	0
74	45568	65	0
74	45568	65.1	0
74	45568	65.2	0
74	45568	65.3	0
74	45568	65.4	0
74	45568	65.5	0
74	45568	65.6	0
74	45568	65.7	0
74	45568	65.8	0
74	45568	65.9	0
74	45568	66	0
74	45568	66.1	0
74	45568	66.2	0
74	45568	66.3	0
74	45568	66.4	0
74	45568	66.5	0
74	45568	66.6	0
74	45568	66.7	0
74	45568	66.8	0
74	45568	66.9	0
74	45568	67	0
74	45568	67.1	0
74	45568	67.2	0
74	45568	67.3	0
74	45568	67.4	0
74	45568	67.5	0
74	45568	67.6	0
74	45568	67.7	0
74	45568	67.8	0
74	45568	67.9	0
74	45568	68	0
74	45568	68.1	0
74	45568	68.2	0
74	45568	68.3	0
74	45568	68.4	0
74	45568	68.5	0
74	45568	68.6	0
74	45568	68.7	0
74	45568	68.8	0
74	45568	68.9	0
74	45568	69	0
74	45568	69.1	0
74	45568	69.2	0
74	45568	69.3	0
74	45568	69.4	0
74	45568	69.5	0
74	45568	69.6	0
74	45568	69.7	0
74	45568	69.8	0
74	45568	69.9	0
74	45568	70	0
74	45568	70.1	0
74	45568	70.2	0
74	45568	70.3	0
74	45568	70.4	0
74	45568	70.5	0
74	45568	70.6	0
74	45568	70.7	0
74	45568	70.8	0
74	45568	70.9	0
74	45568	71	0
74	45568	71.1	0
74	45568	71.2	0
74	45568	71.3	0
74	45568	71.4	0
74	45568	71.5	0
74	45568	71.6	0
74	45568	71.7	0
74	45568	71.8	0
74	45568	71.9	0
74	45568	72	0
74	45568	72.1	0
74	45568	72.2	0
74	45568	72.3	0
74	45568	72.4	0
74	45568	72.5	0
74	45568	72.6	0
74	45568	72.7	0
74	45568	72.8	0
74	45568	72.9	0
74	45568	73	0
74	45568	73.1	0
74	45568	73.2	0
74	45568	73.3	0
74	45568	73.4	0
74	45568	73.5	0
74	45568	73.6	0
74	45568	73.7	0
74	45568	73.8	0
74	45568	73.9	0
74	45568	74	0
74	45568	74.1	0
74	45568	74.2	0
74	45568	74.3	0
74	45568	74.4	0
74	45568	74.5	0
74	45568	74.6	0
74	45568	74.7	0
74	45568	74.8	0
74	45568	74.9	0
74	45568	75	0
74	45568	75.1	0
74	45568	75.2	0
74	45568	75.3	0
74	45568	75.4	0
74	45568	75.5	0
74	45568	75.6	0
74	45568	75.7	0
74	45568	75.8	0
74	45568	75.9	0
74	45568	76	0
74	45568	76.1	0
74	45568	76.2	0
74	45568	76.3	0
74	45568	76.4	0
74	45568	76.5	0
74	45568	76.6	0
74	45568	76.7	0
74	45568	76.8	0
74	45568	76.9	0
74	45568	77	0
74	45568	77.1	0
74	45568	77.2	0
74	45568	77.3	0
74	45568	77.4	0
74	45568	77.5	0
74	45568	77.6	0
74	45568	77.7	0
74	45568	77.8	0
74	45568	77.9	0
74	45568	78	0
74	45568	78.1	0
74	45568	78.2	0
74	45568	78.3	0
74	45568	78.4	0
74	45568	78.5	0
74	45568	78.6	0
74	45568	78.7	0
74	45568	78.8	0
74	45568	78.9	0
74	45568	79	0
74	45568	79.1	0
74	45568	79.2	0
74	45568	79.3	0
74	45568	79.4	0
74	45568	79.5	0
74	45568	79.6	0
74	45568	79.7	0
74	45568	79.8	0
74	45568	79.9	0
74	45568	80	0
74	45568	80.1	0
74	45568	80.2	0
74	45568	80.3	0
74	45568	80.4	0
74	45568	80.5	0
74	45568	80.6	0
74	45568	80.7	0
74	45568	80.8	0
74	45568	80.9	0
74	45568	81	0
74	45568	81.1	0
74	45568	81.2	0
74	45568	81.3	0
74	45568	81.4	0
74	45568	81.5	0
74	45568	81.6	0
74	45568	81.7	0
74	45568	81.8	0
74	45568	81.9	0
74	45568	82	0
74	45568	82.1	0
74	45568	82.2	0
74	45568	82.3	0
74	45568	82.4	0
74	45568	82.5	0
74	45568	82.6	0
74	45568	82.7	0
74	45568	82.8	0
74	45568	82.9	0
74	45568	83	0
74	45568	83.1	0
74	45568	83.2	0
74	45568	83.3	0
74	45568	83.4	0
74	45568	83.5	0
74	45568	83.6	0
74	45568	83.640902	0

