version 3
run Comunic-3-20240519-23:19:30-5572
attr configname Comunic
attr datetime 20240519-23:19:30
attr datetimef 20240519-231930
attr experiment Comunic
attr inifile omnetpp.ini
attr iterationvars "$pathlosstype=\"TwoRayGroundReflection\""
attr iterationvarsd pathlosstype=TwoRayGroundReflection
attr iterationvarsf pathlosstype=TwoRayGroundReflection-
attr measurement "$pathlosstype=\"TwoRayGroundReflection\""
attr network Network
attr processid 5572
attr repetition 0
attr replication #0
attr resultdir results
attr runnumber 3
attr seedset 3
itervar pathlosstype "\"TwoRayGroundReflection\""
config image-path ../../omnetpp-6.0.3/samples/inet4.5/images
config network Network
config **.bitrate 1Mbps
config *.*.wlan[*].mac.dcf.channelAccess.contention.initialChannelBusy false
config **.configurator.config "xmldoc(\"configurator.xml\")"
config *.source.app[0].typename UdpSink
config *.source.app[*].localPort 1000
config *.*.numApps 1
config *.*.app[0].typename UdpBasicApp
config *.*.app[*].destAddresses "\"source\""
config *.*.app[*].destPort 1000
config *.*.app[*].localPort 1000
config *.*.app[*].messageLength 1000Byte
config *.*.app[*].sendInterval 100ms
config *.*.app[*].startTime 0ms
config *.destination.mobility.typename StationaryMobility
config *.destination.mobility.mobilityStateChanged.vector-recording true
config *.destination.mobility.record.vector-recording true
config *.destination.mobility.initialX 100m
config *.destination.mobility.initialY 100m
config *.destination.mobility.initialZ 0.15m
config *.source.mobility.typename LinearMobility
config *.source.mobility.initialX 100m
config *.source.mobility.initialY 100m
config *.source.mobility.initialZ 5m
config *.source.mobility.initialMovementHeading 0deg
config *.source.mobility.initialMovementElevation 0deg
config *.source.mobility.speed 1mps
config *.*.wlan[*].radio.transmitter.power 6dBm
config *.*.wlan[*].radio.centerFrequency 2.400937GHz
config *.*.wlan[*].radio.*.sensitivity -85dBm
config *.*.wlan[*].radio.antenna.typename DipoleAntenna
config *.*.wlan[*].radio.antenna.length 0.05m
config *.*.wlan[*].radio.antenna.maxGain "1.97 dB"
config *.*.wlan[*].radio.antenna.minGain "-90 dB"
config *.*.wlan[*].radio.antenna.lambda 0.125437811m
config *.*.wlan[*].radio.antenna.wireAxis "\"y\""
config *.radioMedium.backgroundNoise.typename IsotropicScalarBackgroundNoise
config *.radioMedium.backgroundNoise.power "-150 dBm"
config *.radioMedium.pathLoss.typename TwoRayGroundReflection
config *.radioMedium.recordCommunicationLog true
config *.visualizer.*.radioVisualizer.displayRadios true
config *.visualizer.*.radioVisualizer.displayAntennaLobes true
config *.visualizer.*.mediumVisualizer.signalPropagationAnimationSpeed 0.000001
config *.visualizer.*.mediumVisualizer.signalTransmissionAnimationSpeed 0.0001
config *.visualizer.*.mediumVisualizer.displaySignals true
config *.visualizer.*.mediumVisualizer.displaySignalDepartures true
config *.visualizer.*.mediumVisualizer.displaySignalArrivals true
config record-eventlog true
config **.arp.typename GlobalArp
config *.visualizer.osgVisualizer.typename IntegratedOsgVisualizer
config *.visualizer.osgVisualizer.sceneVisualizer.typename SceneOsgEarthVisualizer
config *.visualizer.osgVisualizer.sceneVisualizer.mapFile "\"map.earth\""
config *.visualizer.osgVisualizer.sceneVisualizer.sceneImageSize 10000m
config *.visualizer.osgVisualizer.sceneVisualizer.axisLength 500m
config *.visualizer.osgVisualizer.sceneVisualizer.sceneMinX -200m
config *.visualizer.osgVisualizer.sceneVisualizer.sceneMinY -200m
config *.visualizer.osgVisualizer.sceneVisualizer.sceneMinZ 0m
config *.visualizer.osgVisualizer.sceneVisualizer.sceneMaxX 5000m
config *.visualizer.osgVisualizer.sceneVisualizer.sceneMaxY 5000m
config *.visualizer.osgVisualizer.sceneVisualizer.sceneMaxZ 5000m
config *.visualizer.osgVisualizer.networkNodeVisualizer.displayModuleName true
config **.constraintAreaMinX -5000m
config **.constraintAreaMinY -5000m
config **.constraintAreaMinZ -100m
config **.constraintAreaMaxX 5000m
config **.constraintAreaMaxY 5000m
config **.constraintAreaMaxZ 5000m
config *.coordinateSystem.sceneLongitude -43.270694deg
config *.coordinateSystem.sceneLatitude -22.825083deg
config *.coordinateSystem.sceneHeading 90deg
config *.physicalEnvironment.ground.typename FlatGround
config *.source.osgModel "\"3d/drone.ive.10.scale.0,0,90.rot\""
config **.mobility.initFromDisplayString false

vector 0 Network.source.wlan[0].mac.dcf frameSequenceActive:vector ETV
attr autoWarmupFilter false
attr interpolationmode sample-hold
attr recordingmode vector
attr source warmup(count(frameSequenceStarted)-count(frameSequenceFinished))
attr title "frame sequence active"
vector 1 Network.source.wlan[0].mac.dcf.channelAccess.pendingQueue queueLength:vector ETV
attr autoWarmupFilter false
attr interpolationmode sample-hold
attr recordingmode vector
attr source "warmup(atomic(constant0(packetPushEnded) + count(packetPushStarted) - count(packetPulled) - count(packetRemoved) - count(packetDropped)))"
attr title "queue length"
attr unit pk
vector 2 Network.source.wlan[0].mac.dcf.channelAccess.pendingQueue queueBitLength:vector ETV
attr autoWarmupFilter false
attr interpolationmode sample-hold
attr recordingmode vector
attr source "warmup(atomic(constant0(packetPushEnded) + sum(packetLength(packetPushStarted)) - sum(packetLength(packetPulled)) - sum(packetLength(packetRemoved)) - sum(packetLength(packetDropped))))"
attr title "queue bit length"
attr unit b
vector 3 Network.source.wlan[0].mac.dcf.channelAccess.inProgressFrames queueLength:vector ETV
attr autoWarmupFilter false
attr interpolationmode sample-hold
attr recordingmode vector
attr source "warmup(count(packetEnqueued) - count(packetDequeued))"
attr title "queue length"
vector 4 Network.source.wlan[0].mac.dcf.channelAccess.contention backoffActive:vector ETV
attr autoWarmupFilter false
attr interpolationmode sample-hold
attr recordingmode vector
attr source warmup(count(backoffStarted)-count(backoffStopped))
attr title "backoff active"
vector 5 Network.source.udp passedUpPk:vector(count) ETV
attr interpolationmode none
attr recordingmode vector(count)
attr source packetSentToUpper
attr title "packets passed up, count"
vector 6 Network.source.udp droppedPkWrongPort:vector(count) ETV
attr interpolationmode none
attr recordingmode vector(count)
attr source packetDropReasonIsNoPortFound(packetDropped)
attr title "packets dropped (wrong port), count"
vector 7 Network.source.udp droppedPkBadChecksum:vector(count) ETV
attr interpolationmode none
attr recordingmode vector(count)
attr source packetDropReasonIsIncorrectlyReceived(packetDropped)
attr title "packets dropped (checksum error), count"
vector 8 Network.destination.wlan[0].mac.dcf frameSequenceActive:vector ETV
attr autoWarmupFilter false
attr interpolationmode sample-hold
attr recordingmode vector
attr source warmup(count(frameSequenceStarted)-count(frameSequenceFinished))
attr title "frame sequence active"
vector 9 Network.destination.wlan[0].mac.dcf.channelAccess.pendingQueue queueLength:vector ETV
attr autoWarmupFilter false
attr interpolationmode sample-hold
attr recordingmode vector
attr source "warmup(atomic(constant0(packetPushEnded) + count(packetPushStarted) - count(packetPulled) - count(packetRemoved) - count(packetDropped)))"
attr title "queue length"
attr unit pk
vector 10 Network.destination.wlan[0].mac.dcf.channelAccess.pendingQueue queueBitLength:vector ETV
attr autoWarmupFilter false
attr interpolationmode sample-hold
attr recordingmode vector
attr source "warmup(atomic(constant0(packetPushEnded) + sum(packetLength(packetPushStarted)) - sum(packetLength(packetPulled)) - sum(packetLength(packetRemoved)) - sum(packetLength(packetDropped))))"
attr title "queue bit length"
attr unit b
vector 11 Network.destination.wlan[0].mac.dcf.channelAccess.inProgressFrames queueLength:vector ETV
attr autoWarmupFilter false
attr interpolationmode sample-hold
attr recordingmode vector
attr source "warmup(count(packetEnqueued) - count(packetDequeued))"
attr title "queue length"
vector 12 Network.destination.wlan[0].mac.dcf.channelAccess.contention backoffActive:vector ETV
attr autoWarmupFilter false
attr interpolationmode sample-hold
attr recordingmode vector
attr source warmup(count(backoffStarted)-count(backoffStopped))
attr title "backoff active"
vector 13 Network.destination.udp passedUpPk:vector(count) ETV
attr interpolationmode none
attr recordingmode vector(count)
attr source packetSentToUpper
attr title "packets passed up, count"
vector 14 Network.destination.udp droppedPkWrongPort:vector(count) ETV
attr interpolationmode none
attr recordingmode vector(count)
attr source packetDropReasonIsNoPortFound(packetDropped)
attr title "packets dropped (wrong port), count"
vector 15 Network.destination.udp droppedPkBadChecksum:vector(count) ETV
attr interpolationmode none
attr recordingmode vector(count)
attr source packetDropReasonIsIncorrectlyReceived(packetDropped)
attr title "packets dropped (checksum error), count"
vector 16 Network.source.wlan[0].radio radioMode:vector ETV
attr interpolationmode sample-hold
attr recordingmode vector
attr source radioModeChanged
attr title "Radio mode"
vector 17 Network.source.wlan[0].radio radioChannel:vector ETV
attr interpolationmode sample-hold
attr recordingmode vector
attr source radioChannelChanged
attr title "Radio channel"
vector 18 Network.destination.wlan[0].radio radioMode:vector ETV
attr interpolationmode sample-hold
attr recordingmode vector
attr source radioModeChanged
attr title "Radio mode"
vector 19 Network.destination.wlan[0].radio radioChannel:vector ETV
attr interpolationmode sample-hold
attr recordingmode vector
attr source radioChannelChanged
attr title "Radio channel"
vector 20 Network.source.wlan[0].radio receptionState:vector ETV
attr interpolationmode sample-hold
attr recordingmode vector
attr source receptionStateChanged
attr title "Radio reception state"
vector 21 Network.source.wlan[0].mac.dcf.channelAccess.contention stateChanged:vector ETV
attr enum IDLE,DEFER,IFS_AND_BACKOFF
attr interpolationmode none
attr recordingmode vector
attr title "contention state changed"
attr type enum
vector 22 Network.destination.wlan[0].radio receptionState:vector ETV
attr interpolationmode sample-hold
attr recordingmode vector
attr source receptionStateChanged
attr title "Radio reception state"
vector 23 Network.destination.wlan[0].mac.dcf.channelAccess.contention stateChanged:vector ETV
attr enum IDLE,DEFER,IFS_AND_BACKOFF
attr interpolationmode none
attr recordingmode vector
attr title "contention state changed"
attr type enum
vector 24 Network.source.wlan[0].mac.dcf.recoveryProcedure contentionWindowChanged:vector ETV
attr interpolationmode sample-hold
attr recordingmode vector
attr title "contention window"
vector 25 Network.destination.wlan[0].mac.dcf.recoveryProcedure contentionWindowChanged:vector ETV
attr interpolationmode sample-hold
attr recordingmode vector
attr title "contention window"
vector 26 Network.destination.app[0] packetSent:vector(packetBytes) ETV
attr interpolationmode none
attr recordingmode vector(packetBytes)
attr source packetSent
attr title "packets sent, packetBytes"
vector 27 Network.destination.udp packetSent:vector(packetBytes) ETV
attr interpolationmode none
attr recordingmode vector(packetBytes)
attr source packetSent
attr title "packets sent, packetBytes"
vector 28 Network.destination.wlan[0].mac packetReceivedFromUpper:vector(packetBytes) ETV
attr interpolationmode none
attr recordingmode vector(packetBytes)
attr title "packets received from upper layer, packetBytes"
vector 29 Network.destination.wlan[0].mac.dcf.channelAccess.pendingQueue incomingPacketLengths:vector ETV
attr interpolationmode none
attr recordingmode vector
attr source packetLength(packetPushStarted)
attr title "incoming packet lengths"
attr unit b
vector 30 Network.destination.wlan[0].mac.dcf.channelAccess.contention backoffPeriodGenerated:vector ETV
attr interpolationmode none
attr recordingmode vector
attr title "backoff periods"
vector 31 Network.destination.wlan[0].mac.dcf.channelAccess.pendingQueue queueingTime:vector ETV
attr interpolationmode none
attr recordingmode vector
attr source queueingTime(packetPulled)
attr title "queueing times"
attr unit s
vector 32 Network.destination.wlan[0].mac.dcf.channelAccess.pendingQueue outgoingPacketLengths:vector ETV
attr interpolationmode none
attr recordingmode vector
attr source packetLength(packetPulled)
attr title "outgoing packet lengths"
attr unit b
vector 33 Network.destination.wlan[0].mac.dcf datarateSelected:vector ETV
attr interpolationmode none
attr recordingmode vector
attr title "datarates selected"
vector 34 Network.destination.wlan[0].mac packetSentToLower:vector(packetBytes) ETV
attr interpolationmode none
attr recordingmode vector(packetBytes)
attr title "packets sent to lower layer, packetBytes"
vector 35 Network.destination.wlan[0].radio transmissionState:vector ETV
attr interpolationmode sample-hold
attr recordingmode vector
attr source transmissionStateChanged
attr title "Radio transmission state"
vector 36 Network receptionPower:vector ETV
attr recordingmode vector
attr source receptionMinSignalPower(radioMedium.signalArrivalStarted)
vector 37 Network.destination.wlan[0].mac.dcf packetSentToPeer:vector(packetBytes) ETV
attr interpolationmode none
attr recordingmode vector(packetBytes)
attr title "packets sent, packetBytes"
vector 38 Network.destination.wlan[0].mac.dcf packetSentToPeerUnicast:vector(packetBytes) ETV
attr interpolationmode none
attr recordingmode vector(packetBytes)
attr source ieee80211Unicast(packetSentToPeer)
attr title "packets sent: unicast, packetBytes"
vector 39 Network.destination.wlan[0].mac.dcf packetSentToPeerWithoutRetry:vector(packetBytes) ETV
attr interpolationmode none
attr recordingmode vector(packetBytes)
attr source ieee80211NotRetry(packetSentToPeer)
attr title "packets sent: without retry, packetBytes"
vector 40 Network.destination.wlan[0].mac.rx nav:vector ETV
attr interpolationmode linear
attr recordingmode vector
attr source navChanged
attr title "network allocation vector"
vector 41 Network.source.wlan[0].mac packetReceivedFromLower:vector(packetBytes) ETV
attr interpolationmode none
attr recordingmode vector(packetBytes)
attr title "packets received from lower layer, packetBytes"
vector 42 Network.source.wlan[0].mac.dcf packetReceivedFromPeer:vector(packetBytes) ETV
attr interpolationmode none
attr recordingmode vector(packetBytes)
attr title "packets received, packetBytes"
vector 43 Network.source.wlan[0].mac.dcf packetReceivedFromPeerUnicast:vector(packetBytes) ETV
attr interpolationmode none
attr recordingmode vector(packetBytes)
attr source ieee80211Unicast(packetReceivedFromPeer)
attr title "packets received: unicast, packetBytes"
vector 44 Network.source.wlan[0].mac.dcf packetReceivedFromPeerWithoutRetry:vector(packetBytes) ETV
attr interpolationmode none
attr recordingmode vector(packetBytes)
attr source ieee80211NotRetry(packetReceivedFromPeer)
attr title "packets received: without retry, packetBytes"
vector 45 Network.source.wlan[0].mac.dcf datarateSelected:vector ETV
attr interpolationmode none
attr recordingmode vector
attr title "datarates selected"
vector 46 Network.source.wlan[0].mac packetSentToUpper:vector(packetBytes) ETV
attr interpolationmode none
attr recordingmode vector(packetBytes)
attr title "packets sent to upper layer, packetBytes"
vector 47 Network.source.udp packetReceived:vector(packetBytes) ETV
attr interpolationmode none
attr recordingmode vector(packetBytes)
attr source packetReceived
attr title "packets received, packetBytes"
vector 48 Network.source.app[0] packetReceived:vector(packetBytes) ETV
attr interpolationmode none
attr recordingmode vector(packetBytes)
attr source packetReceived
attr title "packets received, packetBytes"
vector 49 Network.source.app[0] endToEndDelay:vector ETV
attr interpolationmode none
attr recordingmode vector
attr source dataAge(packetReceived)
attr title "end-to-end delay"
attr unit s
vector 50 Network.source.app[0] rcvdPkSeqNo:vector ETV
attr interpolationmode none
attr recordingmode vector
attr source appPkSeqNo(packetReceived)
attr title "received packet sequence number"
vector 51 Network.source.wlan[0].mac packetSentToLower:vector(packetBytes) ETV
attr interpolationmode none
attr recordingmode vector(packetBytes)
attr title "packets sent to lower layer, packetBytes"
vector 52 Network.source.wlan[0].radio transmissionState:vector ETV
attr interpolationmode sample-hold
attr recordingmode vector
attr source transmissionStateChanged
attr title "Radio transmission state"
vector 53 Network.source.wlan[0].mac.dcf packetSentToPeer:vector(packetBytes) ETV
attr interpolationmode none
attr recordingmode vector(packetBytes)
attr title "packets sent, packetBytes"
vector 54 Network.source.wlan[0].mac.dcf packetSentToPeerUnicast:vector(packetBytes) ETV
attr interpolationmode none
attr recordingmode vector(packetBytes)
attr source ieee80211Unicast(packetSentToPeer)
attr title "packets sent: unicast, packetBytes"
vector 55 Network.source.wlan[0].mac.dcf packetSentToPeerWithoutRetry:vector(packetBytes) ETV
attr interpolationmode none
attr recordingmode vector(packetBytes)
attr source ieee80211NotRetry(packetSentToPeer)
attr title "packets sent: without retry, packetBytes"
vector 56 Network.destination.wlan[0].mac packetReceivedFromLower:vector(packetBytes) ETV
attr interpolationmode none
attr recordingmode vector(packetBytes)
attr title "packets received from lower layer, packetBytes"
vector 57 Network.destination.wlan[0].mac.dcf packetReceivedFromPeer:vector(packetBytes) ETV
attr interpolationmode none
attr recordingmode vector(packetBytes)
attr title "packets received, packetBytes"
vector 58 Network.destination.wlan[0].mac.dcf packetReceivedFromPeerUnicast:vector(packetBytes) ETV
attr interpolationmode none
attr recordingmode vector(packetBytes)
attr source ieee80211Unicast(packetReceivedFromPeer)
attr title "packets received: unicast, packetBytes"
vector 59 Network.destination.wlan[0].mac.dcf packetReceivedFromPeerWithoutRetry:vector(packetBytes) ETV
attr interpolationmode none
attr recordingmode vector(packetBytes)
attr source ieee80211NotRetry(packetReceivedFromPeer)
attr title "packets received: without retry, packetBytes"
vector 60 Network.destination.wlan[0].mac.dcf.channelAccess.inProgressFrames queueingTime:vector ETV
attr interpolationmode none
attr recordingmode vector
attr source queueingTime(packetDequeued)
attr title "queueing times"
vector 61 Network.destination.wlan[0].mac.dcf.channelAccess.pendingQueue incomingDataRate:vector ETV
attr interpolationmode linear
attr recordingmode vector
attr source throughput(packetPushStarted)
attr title "incoming datarate"
attr unit bps
vector 62 Network.destination.wlan[0].mac.dcf.channelAccess.pendingQueue outgoingDataRate:vector ETV
attr interpolationmode linear
attr recordingmode vector
attr source throughput(packetPulled)
attr title "outgoing datarate"
attr unit bps
vector 63 Network.source.app[0] throughput:vector ETV
attr recordingmode vector
attr source throughput(packetReceived)
attr title throughput
attr unit bps
0	0	0	0
0	0	0	0
1	0	0	0
1	0	0	0
1	0	0	0
1	0	0	0
1	0	0	0
2	0	0	0
2	0	0	0
2	0	0	0
2	0	0	0
2	0	0	0
3	0	0	0
3	0	0	0
4	0	0	0
4	0	0	0
5	0	0	0
5	21	0.008704016178	1
5	52	0.108704016181	2
5	83	0.208704016192	3
5	114	0.308704016209	4
5	145	0.408704016233	5
5	176	0.508704016264	6
5	207	0.608704016301	7
5	238	0.708704016345	8
5	269	0.808704016396	9
5	300	0.908704016454	10
5	331	1.008704016518	11
5	362	1.108704016589	12
5	393	1.208704016666	13
5	424	1.308704016749	14
5	455	1.408704016838	15
5	486	1.508704016934	16
5	517	1.608704017035	17
5	548	1.708704017143	18
5	579	1.808704017256	19
5	610	1.908704017375	20
5	641	2.008704017499	21
5	672	2.108704017629	22
5	703	2.208704017764	23
5	734	2.308704017905	24
5	765	2.40870401805	25
5	796	2.508704018201	26
5	827	2.608704018356	27
5	858	2.708704018516	28
5	889	2.80870401868	29
5	920	2.908704018849	30
5	951	3.008704019023	31
5	982	3.1087040192	32
5	1013	3.208704019382	33
5	1044	3.308704019568	34
5	1075	3.408704019757	35
5	1106	3.508704019951	36
5	1137	3.608704020148	37
5	1168	3.708704020348	38
5	1199	3.808704020552	39
5	1230	3.90870402076	40
5	1261	4.00870402097	41
5	1292	4.108704021184	42
5	1323	4.208704021401	43
5	1354	4.308704021621	44
5	1385	4.408704021843	45
5	1416	4.508704022069	46
5	1447	4.608704022297	47
5	1478	4.708704022528	48
5	1509	4.808704022761	49
5	1540	4.908704022997	50
5	1571	5.008704023235	51
5	1602	5.108704023476	52
5	1633	5.208704023719	53
5	1664	5.308704023964	54
5	1695	5.408704024211	55
5	1726	5.50870402446	56
5	1757	5.608704024711	57
5	1788	5.708704024964	58
5	1819	5.808704025219	59
5	1850	5.908704025476	60
5	1881	6.008704025735	61
5	1912	6.108704025995	62
5	1943	6.208704026257	63
5	1974	6.30870402652	64
5	2005	6.408704026786	65
5	2036	6.508704027052	66
5	2067	6.60870402732	67
5	2098	6.70870402759	68
5	2129	6.808704027861	69
5	2160	6.908704028133	70
5	2191	7.008704028406	71
5	2222	7.108704028681	72
5	2253	7.208704028957	73
5	2284	7.308704029234	74
5	2315	7.408704029513	75
5	2346	7.508704029792	76
5	2377	7.608704030073	77
5	2408	7.708704030355	78
5	2439	7.808704030638	79
5	2470	7.908704030921	80
5	2501	8.008704031206	81
5	2532	8.108704031492	82
5	2563	8.208704031778	83
5	2594	8.308704032066	84
5	2625	8.408704032354	85
5	2656	8.508704032644	86
5	2687	8.608704032934	87
5	2718	8.708704033225	88
5	2749	8.808704033517	89
5	2780	8.908704033809	90
5	2811	9.008704034102	91
5	2842	9.108704034396	92
5	2873	9.208704034691	93
5	2904	9.308704034986	94
5	2935	9.408704035283	95
5	2966	9.508704035579	96
5	2997	9.608704035877	97
5	3028	9.708704036175	98
5	3059	9.808704036473	99
5	3090	9.908704036773	100
5	3121	10.008704037073	101
5	3152	10.108704037373	102
5	3183	10.208704037674	103
5	3214	10.308704037975	104
5	3245	10.408704038277	105
5	3276	10.50870403858	106
5	3307	10.608704038883	107
5	3338	10.708704039187	108
5	3369	10.808704039491	109
5	3400	10.908704039795	110
5	3431	11.0087040401	111
5	3462	11.108704040406	112
5	3493	11.208704040712	113
5	3524	11.308704041018	114
5	3555	11.408704041325	115
5	3586	11.508704041632	116
5	3617	11.608704041939	117
5	3648	11.708704042247	118
5	3679	11.808704042556	119
5	3710	11.908704042864	120
5	3741	12.008704043173	121
5	3772	12.108704043483	122
5	3803	12.208704043793	123
5	3834	12.308704044103	124
5	3865	12.408704044413	125
5	3896	12.508704044724	126
5	3927	12.608704045035	127
5	3958	12.708704045347	128
5	3989	12.808704045658	129
5	4020	12.90870404597	130
5	4051	13.008704046283	131
5	4082	13.108704046596	132
5	4113	13.208704046908	133
5	4144	13.308704047222	134
5	4175	13.408704047535	135
5	4206	13.508704047849	136
5	4237	13.608704048163	137
5	4268	13.708704048477	138
5	4299	13.808704048792	139
5	4330	13.908704049107	140
5	4361	14.008704049422	141
5	4392	14.108704049737	142
5	4423	14.208704050053	143
5	4454	14.308704050368	144
5	4485	14.408704050684	145
5	4516	14.508704051001	146
5	4547	14.608704051317	147
5	4578	14.708704051634	148
5	4609	14.808704051951	149
5	4640	14.908704052268	150
5	4671	15.008704052585	151
5	4702	15.108704052903	152
5	4733	15.20870405322	153
5	4764	15.308704053538	154
5	4795	15.408704053856	155
5	4826	15.508704054174	156
5	4857	15.608704054493	157
5	4888	15.708704054811	158
5	4919	15.80870405513	159
5	4950	15.908704055449	160
5	4981	16.008704055768	161
5	5012	16.108704056088	162
5	5043	16.208704056407	163
5	5074	16.308704056727	164
5	5105	16.408704057047	165
5	5136	16.508704057366	166
5	5167	16.608704057687	167
5	5198	16.708704058007	168
5	5229	16.808704058327	169
5	5260	16.908704058648	170
5	5291	17.008704058968	171
5	5322	17.108704059289	172
5	5353	17.20870405961	173
5	5384	17.308704059931	174
5	5415	17.408704060253	175
5	5446	17.508704060574	176
5	5477	17.608704060896	177
5	5508	17.708704061217	178
5	5539	17.808704061539	179
5	5570	17.908704061861	180
5	5601	18.008704062183	181
5	5632	18.108704062505	182
5	5663	18.208704062827	183
5	5694	18.30870406315	184
5	5725	18.408704063472	185
5	5756	18.508704063795	186
5	5787	18.608704064117	187
5	5818	18.70870406444	188
5	5849	18.808704064763	189
5	5880	18.908704065086	190
5	5911	19.008704065409	191
5	5942	19.108704065733	192
5	5973	19.208704066056	193
5	6004	19.308704066379	194
5	6035	19.408704066703	195
5	6066	19.508704067027	196
5	6097	19.60870406735	197
5	6128	19.708704067674	198
5	6159	19.808704067998	199
5	6190	19.908704068322	200
5	6221	20.008704068646	201
5	6252	20.108704068971	202
5	6283	20.208704069295	203
5	6314	20.308704069619	204
5	6345	20.408704069944	205
5	6376	20.508704070268	206
5	6407	20.608704070593	207
5	6438	20.708704070918	208
5	6469	20.808704071242	209
5	6500	20.908704071567	210
5	6531	21.008704071892	211
5	6562	21.108704072217	212
5	6593	21.208704072543	213
5	6624	21.308704072868	214
5	6655	21.408704073193	215
5	6686	21.508704073518	216
5	6717	21.608704073844	217
5	6748	21.708704074169	218
5	6779	21.808704074495	219
5	6810	21.90870407482	220
5	6841	22.008704075146	221
5	6872	22.108704075472	222
5	6903	22.208704075798	223
5	6934	22.308704076124	224
5	6965	22.40870407645	225
5	6996	22.508704076776	226
5	7027	22.608704077102	227
5	7058	22.708704077428	228
5	7089	22.808704077754	229
5	7120	22.908704078081	230
5	7151	23.008704078407	231
5	7182	23.108704078733	232
5	7213	23.20870407906	233
5	7244	23.308704079386	234
5	7275	23.408704079713	235
5	7306	23.50870408004	236
5	7337	23.608704080366	237
5	7368	23.708704080693	238
5	7399	23.80870408102	239
5	7430	23.908704081347	240
5	7461	24.008704081674	241
5	7492	24.108704082001	242
5	7523	24.208704082328	243
5	7554	24.308704082655	244
5	7585	24.408704082982	245
5	7616	24.508704083309	246
5	7647	24.608704083636	247
5	7678	24.708704083964	248
5	7709	24.808704084291	249
5	7740	24.908704084618	250
5	7771	25.008704084946	251
5	7802	25.108704085273	252
5	7833	25.208704085601	253
5	7864	25.308704085928	254
5	7895	25.408704086256	255
5	7926	25.508704086584	256
5	7957	25.608704086911	257
5	7988	25.708704087239	258
5	8019	25.808704087567	259
5	8050	25.908704087895	260
5	8081	26.008704088223	261
5	8112	26.108704088551	262
5	8143	26.208704088879	263
5	8174	26.308704089207	264
5	8205	26.408704089535	265
5	8236	26.508704089863	266
5	8267	26.608704090191	267
5	8298	26.708704090519	268
5	8329	26.808704090847	269
5	8360	26.908704091175	270
5	8391	27.008704091504	271
5	8422	27.108704091832	272
5	8453	27.20870409216	273
5	8484	27.308704092489	274
5	8515	27.408704092817	275
5	8546	27.508704093146	276
5	8577	27.608704093474	277
5	8608	27.708704093803	278
5	8639	27.808704094131	279
5	8670	27.90870409446	280
5	8701	28.008704094789	281
5	8732	28.108704095117	282
5	8763	28.208704095446	283
5	8794	28.308704095775	284
5	8825	28.408704096104	285
5	8856	28.508704096432	286
5	8887	28.608704096761	287
5	8918	28.70870409709	288
5	8949	28.808704097419	289
5	8980	28.908704097748	290
5	9011	29.008704098077	291
5	9042	29.108704098406	292
5	9073	29.208704098735	293
5	9104	29.308704099064	294
5	9135	29.408704099393	295
5	9166	29.508704099722	296
5	9197	29.608704100052	297
5	9228	29.708704100381	298
5	9259	29.80870410071	299
5	9290	29.908704101039	300
5	9321	30.008704101369	301
5	9352	30.108704101698	302
5	9383	30.208704102027	303
5	9414	30.308704102356	304
5	9445	30.408704102686	305
5	9476	30.508704103015	306
5	9507	30.608704103345	307
5	9538	30.708704103674	308
5	9569	30.808704104004	309
5	9600	30.908704104333	310
5	9631	31.008704104663	311
5	9662	31.108704104992	312
5	9693	31.208704105322	313
5	9724	31.308704105652	314
5	9755	31.408704105981	315
5	9786	31.508704106311	316
5	9817	31.608704106641	317
5	9848	31.70870410697	318
5	9879	31.8087041073	319
5	9910	31.90870410763	320
5	9941	32.00870410796	321
5	9972	32.108704108289	322
5	10003	32.208704108619	323
5	10034	32.308704108949	324
5	10065	32.408704109279	325
5	10096	32.508704109609	326
5	10127	32.608704109939	327
5	10158	32.708704110269	328
5	10189	32.808704110599	329
5	10220	32.908704110929	330
5	10251	33.008704111259	331
5	10282	33.108704111589	332
5	10313	33.208704111919	333
5	10344	33.308704112249	334
5	10375	33.408704112579	335
5	10406	33.508704112909	336
5	10437	33.608704113239	337
5	10468	33.708704113569	338
5	10499	33.808704113899	339
5	10530	33.90870411423	340
5	10561	34.00870411456	341
5	10592	34.10870411489	342
5	10623	34.20870411522	343
5	10654	34.308704115551	344
5	10685	34.408704115881	345
5	10716	34.508704116211	346
5	10747	34.608704116542	347
5	10778	34.708704116872	348
5	10809	34.808704117202	349
5	10840	34.908704117533	350
5	10871	35.008704117863	351
5	10902	35.108704118193	352
5	10933	35.208704118524	353
5	10964	35.308704118854	354
5	10995	35.408704119185	355
5	11026	35.508704119515	356
5	11057	35.608704119846	357
5	11088	35.708704120176	358
5	11119	35.808704120507	359
5	11150	35.908704120837	360
5	11181	36.008704121168	361
5	11212	36.108704121499	362
5	11243	36.208704121829	363
5	11274	36.30870412216	364
5	11305	36.40870412249	365
5	11336	36.508704122821	366
5	11367	36.608704123152	367
5	11398	36.708704123482	368
5	11429	36.808704123813	369
5	11460	36.908704124144	370
5	11491	37.008704124475	371
5	11522	37.108704124805	372
5	11553	37.208704125136	373
5	11584	37.308704125467	374
5	11615	37.408704125798	375
5	11646	37.508704126128	376
5	11677	37.608704126459	377
5	11708	37.70870412679	378
5	11739	37.808704127121	379
5	11770	37.908704127452	380
5	11801	38.008704127783	381
5	11832	38.108704128113	382
5	11863	38.208704128444	383
5	11894	38.308704128775	384
5	11925	38.408704129106	385
5	11956	38.508704129437	386
5	11987	38.608704129768	387
5	12018	38.708704130099	388
5	12049	38.80870413043	389
5	12080	38.908704130761	390
5	12111	39.008704131092	391
5	12142	39.108704131423	392
5	12173	39.208704131754	393
5	12204	39.308704132085	394
5	12235	39.408704132416	395
5	12266	39.508704132747	396
5	12297	39.608704133078	397
5	12328	39.708704133409	398
5	12359	39.808704133741	399
5	12390	39.908704134072	400
5	12421	40.008704134403	401
5	12452	40.108704134734	402
5	12483	40.208704135065	403
5	12514	40.308704135396	404
5	12545	40.408704135727	405
5	12576	40.508704136059	406
5	12607	40.60870413639	407
5	12638	40.708704136721	408
5	12669	40.808704137052	409
5	12700	40.908704137384	410
5	12731	41.008704137715	411
5	12762	41.108704138046	412
5	12793	41.208704138377	413
5	12824	41.308704138709	414
5	12855	41.40870413904	415
5	12886	41.508704139371	416
5	12917	41.608704139703	417
5	12948	41.708704140034	418
5	12979	41.808704140365	419
5	13010	41.908704140697	420
5	13041	42.008704141028	421
5	13072	42.108704141359	422
5	13103	42.208704141691	423
5	13134	42.308704142022	424
5	13165	42.408704142353	425
5	13196	42.508704142685	426
5	13227	42.608704143016	427
5	13258	42.708704143348	428
5	13289	42.808704143679	429
5	13320	42.908704144011	430
5	13351	43.008704144342	431
5	13382	43.108704144674	432
5	13413	43.208704145005	433
5	13444	43.308704145336	434
5	13475	43.408704145668	435
5	13506	43.508704145999	436
5	13537	43.608704146331	437
5	13568	43.708704146663	438
5	13599	43.808704146994	439
5	13630	43.908704147326	440
5	13661	44.008704147657	441
5	13692	44.108704147989	442
5	13723	44.20870414832	443
5	13754	44.308704148652	444
5	13785	44.408704148983	445
5	13816	44.508704149315	446
5	13847	44.608704149647	447
5	13878	44.708704149978	448
5	13909	44.80870415031	449
5	13940	44.908704150641	450
5	13971	45.008704150973	451
5	14002	45.108704151305	452
5	14033	45.208704151636	453
5	14064	45.308704151968	454
5	14095	45.4087041523	455
5	14126	45.508704152631	456
5	14157	45.608704152963	457
5	14188	45.708704153295	458
5	14219	45.808704153627	459
5	14250	45.908704153958	460
5	14281	46.00870415429	461
5	14312	46.108704154622	462
5	14343	46.208704154953	463
5	14374	46.308704155285	464
5	14405	46.408704155617	465
5	14436	46.508704155949	466
5	14467	46.60870415628	467
5	14498	46.708704156612	468
5	14529	46.808704156944	469
5	14560	46.908704157276	470
5	14591	47.008704157608	471
5	14622	47.108704157939	472
5	14653	47.208704158271	473
5	14684	47.308704158603	474
5	14715	47.408704158935	475
5	14746	47.508704159267	476
5	14777	47.608704159599	477
5	14808	47.70870415993	478
5	14839	47.808704160262	479
5	14870	47.908704160594	480
5	14901	48.008704160926	481
5	14932	48.108704161258	482
5	14963	48.20870416159	483
5	14994	48.308704161922	484
5	15025	48.408704162254	485
5	15056	48.508704162585	486
5	15087	48.608704162917	487
5	15118	48.708704163249	488
5	15149	48.808704163581	489
5	15180	48.908704163913	490
5	15211	49.008704164245	491
5	15242	49.108704164577	492
5	15273	49.208704164909	493
5	15304	49.308704165241	494
5	15335	49.408704165573	495
5	15366	49.508704165905	496
5	15397	49.608704166237	497
5	15428	49.708704166569	498
5	15459	49.808704166901	499
5	15490	49.908704167233	500
5	15521	50.008704167565	501
5	15552	50.108704167897	502
5	15583	50.208704168229	503
5	15614	50.308704168561	504
5	15645	50.408704168893	505
5	15676	50.508704169225	506
5	15707	50.608704169557	507
5	15738	50.708704169889	508
5	15769	50.808704170221	509
5	15800	50.908704170553	510
5	15831	51.008704170885	511
5	15862	51.108704171217	512
5	15893	51.208704171549	513
5	15924	51.308704171881	514
5	15955	51.408704172214	515
5	15986	51.508704172546	516
5	16017	51.608704172878	517
5	16048	51.70870417321	518
5	16079	51.808704173542	519
5	16110	51.908704173874	520
5	16141	52.008704174206	521
5	16172	52.108704174538	522
5	16203	52.20870417487	523
5	16234	52.308704175203	524
5	16265	52.408704175535	525
5	16296	52.508704175867	526
5	16327	52.608704176199	527
5	16358	52.708704176531	528
5	16389	52.808704176863	529
5	16420	52.908704177195	530
5	16451	53.008704177528	531
5	16482	53.10870417786	532
5	16513	53.208704178192	533
5	16544	53.308704178524	534
5	16575	53.408704178856	535
5	16606	53.508704179189	536
5	16637	53.608704179521	537
5	16668	53.708704179853	538
5	16699	53.808704180185	539
5	16730	53.908704180517	540
5	16761	54.00870418085	541
5	16792	54.108704181182	542
5	16823	54.208704181514	543
5	16854	54.308704181846	544
5	16885	54.408704182179	545
5	16916	54.508704182511	546
5	16947	54.608704182843	547
5	16978	54.708704183175	548
5	17009	54.808704183508	549
5	17040	54.90870418384	550
5	17071	55.008704184172	551
5	17102	55.108704184504	552
5	17133	55.208704184837	553
5	17164	55.308704185169	554
5	17195	55.408704185501	555
5	17226	55.508704185834	556
5	17257	55.608704186166	557
5	17288	55.708704186498	558
5	17319	55.808704186831	559
5	17350	55.908704187163	560
5	17381	56.008704187495	561
5	17412	56.108704187827	562
5	17443	56.20870418816	563
5	17474	56.308704188492	564
5	17505	56.408704188824	565
5	17536	56.508704189157	566
5	17567	56.608704189489	567
5	17598	56.708704189821	568
5	17629	56.808704190154	569
5	17660	56.908704190486	570
5	17691	57.008704190819	571
5	17722	57.108704191151	572
5	17753	57.208704191483	573
5	17784	57.308704191816	574
5	17815	57.408704192148	575
5	17846	57.50870419248	576
5	17877	57.608704192813	577
5	17908	57.708704193145	578
5	17939	57.808704193478	579
5	17970	57.90870419381	580
5	18001	58.008704194142	581
5	18032	58.108704194475	582
5	18063	58.208704194807	583
5	18094	58.30870419514	584
5	18125	58.408704195472	585
5	18156	58.508704195804	586
5	18187	58.608704196137	587
5	18218	58.708704196469	588
5	18249	58.808704196802	589
5	18280	58.908704197134	590
5	18311	59.008704197467	591
5	18342	59.108704197799	592
5	18373	59.208704198132	593
5	18404	59.308704198464	594
5	18435	59.408704198796	595
5	18466	59.508704199129	596
5	18497	59.608704199461	597
5	18528	59.708704199794	598
5	18559	59.808704200126	599
5	18590	59.908704200459	600
5	18621	60.008704200791	601
5	18652	60.108704201124	602
5	18683	60.208704201456	603
5	18714	60.308704201789	604
5	18745	60.408704202121	605
5	18776	60.508704202454	606
5	18807	60.608704202786	607
5	18838	60.708704203119	608
5	18869	60.808704203451	609
5	18900	60.908704203784	610
5	18931	61.008704204116	611
5	18962	61.108704204449	612
5	18993	61.208704204781	613
5	19024	61.308704205114	614
5	19055	61.408704205446	615
5	19086	61.508704205779	616
5	19117	61.608704206111	617
5	19148	61.708704206444	618
5	19179	61.808704206776	619
5	19210	61.908704207109	620
5	19241	62.008704207442	621
5	19272	62.108704207774	622
5	19303	62.208704208107	623
5	19334	62.308704208439	624
5	19365	62.408704208772	625
5	19396	62.508704209104	626
5	19427	62.608704209437	627
5	19458	62.708704209769	628
5	19489	62.808704210102	629
5	19520	62.908704210435	630
5	19551	63.008704210767	631
5	19582	63.1087042111	632
5	19613	63.208704211432	633
5	19644	63.308704211765	634
5	19675	63.408704212098	635
5	19706	63.50870421243	636
5	19737	63.608704212763	637
5	19768	63.708704213095	638
5	19799	63.808704213428	639
5	19830	63.908704213761	640
5	19861	64.008704214093	641
5	19892	64.108704214426	642
5	19923	64.208704214758	643
5	19954	64.308704215091	644
5	19985	64.408704215424	645
5	20016	64.508704215756	646
5	20047	64.608704216089	647
5	20078	64.708704216421	648
5	20109	64.808704216754	649
5	20140	64.908704217087	650
5	20171	65.008704217419	651
5	20202	65.108704217752	652
5	20233	65.208704218085	653
5	20264	65.308704218417	654
5	20295	65.40870421875	655
5	20326	65.508704219083	656
5	20357	65.608704219415	657
5	20388	65.708704219748	658
5	20419	65.808704220081	659
5	20450	65.908704220413	660
5	20481	66.008704220746	661
5	20512	66.108704221079	662
5	20543	66.208704221411	663
5	20574	66.308704221744	664
5	20605	66.408704222077	665
5	20636	66.508704222409	666
5	20667	66.608704222742	667
5	20698	66.708704223075	668
5	20729	66.808704223407	669
5	20760	66.90870422374	670
5	20791	67.008704224073	671
5	20822	67.108704224405	672
5	20853	67.208704224738	673
5	20884	67.308704225071	674
5	20915	67.408704225404	675
5	20946	67.508704225736	676
5	20977	67.608704226069	677
5	21008	67.708704226402	678
5	21039	67.808704226734	679
5	21070	67.908704227067	680
5	21101	68.0087042274	681
5	21132	68.108704227733	682
5	21163	68.208704228065	683
5	21194	68.308704228398	684
5	21225	68.408704228731	685
5	21256	68.508704229063	686
5	21287	68.608704229396	687
5	21318	68.708704229729	688
5	21349	68.808704230062	689
5	21380	68.908704230394	690
5	21411	69.008704230727	691
5	21442	69.10870423106	692
5	21473	69.208704231393	693
5	21504	69.308704231725	694
5	21535	69.408704232058	695
5	21566	69.508704232391	696
5	21597	69.608704232724	697
5	21628	69.708704233056	698
5	21659	69.808704233389	699
5	21690	69.908704233722	700
5	21721	70.008704234055	701
5	21752	70.108704234387	702
5	21783	70.20870423472	703
5	21814	70.308704235053	704
5	21845	70.408704235386	705
5	21876	70.508704235719	706
5	21907	70.608704236051	707
5	21938	70.708704236384	708
5	21969	70.808704236717	709
5	22000	70.90870423705	710
5	22031	71.008704237382	711
5	22062	71.108704237715	712
5	22093	71.208704238048	713
5	22124	71.308704238381	714
5	22155	71.408704238714	715
5	22186	71.508704239046	716
5	22217	71.608704239379	717
5	22248	71.708704239712	718
5	22279	71.808704240045	719
5	22310	71.908704240378	720
5	22341	72.00870424071	721
5	22372	72.108704241043	722
5	22403	72.208704241376	723
5	22434	72.308704241709	724
5	22465	72.408704242042	725
5	22496	72.508704242374	726
5	22527	72.608704242707	727
5	22558	72.70870424304	728
5	22589	72.808704243373	729
5	22620	72.908704243706	730
5	22651	73.008704244039	731
5	22682	73.108704244371	732
5	22713	73.208704244704	733
5	22744	73.308704245037	734
5	22775	73.40870424537	735
5	22806	73.508704245703	736
5	22837	73.608704246036	737
5	22868	73.708704246368	738
5	22899	73.808704246701	739
5	22930	73.908704247034	740
5	22961	74.008704247367	741
5	22992	74.1087042477	742
5	23023	74.208704248033	743
5	23054	74.308704248366	744
5	23085	74.408704248698	745
5	23116	74.508704249031	746
5	23147	74.608704249364	747
5	23178	74.708704249697	748
5	23209	74.80870425003	749
5	23240	74.908704250363	750
5	23271	75.008704250696	751
5	23302	75.108704251028	752
5	23333	75.208704251361	753
5	23364	75.308704251694	754
5	23395	75.408704252027	755
5	23426	75.50870425236	756
5	23457	75.608704252693	757
5	23488	75.708704253026	758
5	23519	75.808704253359	759
5	23550	75.908704253692	760
5	23581	76.008704254024	761
5	23612	76.108704254357	762
5	23643	76.20870425469	763
5	23674	76.308704255023	764
5	23705	76.408704255356	765
5	23736	76.508704255689	766
5	23767	76.608704256022	767
5	23798	76.708704256355	768
5	23829	76.808704256688	769
5	23860	76.90870425702	770
5	23891	77.008704257353	771
5	23922	77.108704257686	772
5	23953	77.208704258019	773
5	23984	77.308704258352	774
5	24015	77.408704258685	775
5	24046	77.508704259018	776
5	24077	77.608704259351	777
5	24108	77.708704259684	778
5	24139	77.808704260017	779
5	24170	77.90870426035	780
5	24201	78.008704260682	781
5	24232	78.108704261015	782
5	24263	78.208704261348	783
5	24294	78.308704261681	784
5	24325	78.408704262014	785
5	24356	78.508704262347	786
5	24387	78.60870426268	787
5	24418	78.708704263013	788
5	24449	78.808704263346	789
5	24480	78.908704263679	790
5	24511	79.008704264012	791
5	24542	79.108704264345	792
5	24573	79.208704264678	793
5	24604	79.308704265011	794
5	24635	79.408704265344	795
5	24666	79.508704265676	796
5	24697	79.608704266009	797
5	24728	79.708704266342	798
5	24759	79.808704266675	799
5	24790	79.908704267008	800
5	24821	80.008704267341	801
5	24852	80.108704267674	802
5	24883	80.208704268007	803
5	24914	80.30870426834	804
5	24945	80.408704268673	805
5	24976	80.508704269006	806
5	25007	80.608704269339	807
5	25038	80.708704269672	808
5	25069	80.808704270005	809
5	25100	80.908704270338	810
5	25131	81.008704270671	811
5	25162	81.108704271004	812
5	25193	81.208704271337	813
5	25224	81.30870427167	814
5	25255	81.408704272003	815
5	25286	81.508704272336	816
5	25317	81.608704272669	817
5	25348	81.708704273002	818
5	25379	81.808704273335	819
5	25410	81.908704273668	820
5	25441	82.008704274001	821
5	25472	82.108704274334	822
5	25503	82.208704274667	823
5	25534	82.308704275	824
5	25565	82.408704275333	825
5	25596	82.508704275665	826
5	25627	82.608704275998	827
5	25658	82.708704276331	828
5	25689	82.808704276664	829
5	25720	82.908704276997	830
5	25751	83.00870427733	831
5	25782	83.108704277663	832
5	25813	83.208704277996	833
5	25844	83.308704278329	834
5	25875	83.408704278662	835
5	25906	83.508704278995	836
5	25937	83.608704279328	837
5	25968	83.708704279661	838
5	25999	83.808704279994	839
5	26030	83.908704280327	840
5	26061	84.00870428066	841
5	26092	84.108704280994	842
5	26123	84.208704281327	843
5	26154	84.30870428166	844
5	26185	84.408704281993	845
5	26216	84.508704282326	846
5	26247	84.608704282659	847
5	26278	84.708704282992	848
5	26309	84.808704283325	849
5	26340	84.908704283658	850
5	26371	85.008704283991	851
5	26402	85.108704284324	852
5	26433	85.208704284657	853
5	26464	85.30870428499	854
5	26495	85.408704285323	855
5	26526	85.508704285656	856
5	26557	85.608704285989	857
5	26588	85.708704286322	858
5	26619	85.808704286655	859
5	26650	85.908704286988	860
5	26681	86.008704287321	861
5	26712	86.108704287654	862
5	26743	86.208704287987	863
5	26774	86.30870428832	864
5	26805	86.408704288653	865
5	26836	86.508704288986	866
5	26867	86.608704289319	867
5	26898	86.708704289652	868
5	26929	86.808704289985	869
5	26960	86.908704290318	870
5	26991	87.008704290651	871
5	27022	87.108704290984	872
5	27053	87.208704291317	873
5	27084	87.30870429165	874
5	27115	87.408704291984	875
5	27146	87.508704292317	876
5	27177	87.60870429265	877
5	27208	87.708704292983	878
5	27239	87.808704293316	879
5	27270	87.908704293649	880
5	27301	88.008704293982	881
5	27332	88.108704294315	882
5	27363	88.208704294648	883
5	27394	88.308704294981	884
5	27425	88.408704295314	885
5	27456	88.508704295647	886
5	27487	88.60870429598	887
5	27518	88.708704296313	888
5	27549	88.808704296646	889
5	27580	88.908704296979	890
5	27611	89.008704297313	891
5	27642	89.108704297646	892
5	27673	89.208704297979	893
5	27704	89.308704298312	894
5	27735	89.408704298645	895
5	27766	89.508704298978	896
5	27797	89.608704299311	897
5	27828	89.708704299644	898
5	27859	89.808704299977	899
5	27890	89.90870430031	900
5	27921	90.008704300643	901
5	27952	90.108704300976	902
5	27983	90.208704301309	903
5	28014	90.308704301643	904
5	28045	90.408704301976	905
5	28076	90.508704302309	906
5	28107	90.608704302642	907
5	28138	90.708704302975	908
5	28169	90.808704303308	909
5	28200	90.908704303641	910
5	28231	91.008704303974	911
5	28262	91.108704304307	912
5	28293	91.20870430464	913
5	28324	91.308704304973	914
5	28355	91.408704305307	915
5	28386	91.50870430564	916
5	28417	91.608704305973	917
5	28448	91.708704306306	918
5	28479	91.808704306639	919
5	28510	91.908704306972	920
5	28541	92.008704307305	921
5	28572	92.108704307638	922
5	28603	92.208704307971	923
5	28634	92.308704308304	924
5	28665	92.408704308638	925
5	28696	92.508704308971	926
5	28727	92.608704309304	927
5	28758	92.708704309637	928
5	28789	92.80870430997	929
5	28820	92.908704310303	930
5	28851	93.008704310636	931
5	28882	93.108704310969	932
5	28913	93.208704311302	933
5	28944	93.308704311636	934
5	28975	93.408704311969	935
5	29006	93.508704312302	936
5	29037	93.608704312635	937
5	29068	93.708704312968	938
5	29099	93.808704313301	939
5	29130	93.908704313634	940
5	29161	94.008704313967	941
5	29192	94.1087043143	942
5	29223	94.208704314634	943
5	29254	94.308704314967	944
5	29285	94.4087043153	945
5	29316	94.508704315633	946
5	29347	94.608704315966	947
5	29378	94.708704316299	948
5	29409	94.808704316632	949
5	29440	94.908704316965	950
6	0	0	0
7	0	0	0
8	0	0	0
8	0	0	0
8	11	0	1
8	32	0.009018032356	0
8	42	0.1	1
8	63	0.109018032363	0
8	73	0.2	1
8	94	0.209018032385	0
8	104	0.3	1
8	125	0.30901803242	0
8	135	0.4	1
8	156	0.409018032468	0
8	166	0.5	1
8	187	0.509018032531	0
8	197	0.6	1
8	218	0.609018032606	0
8	228	0.7	1
8	249	0.709018032695	0
8	259	0.8	1
8	280	0.809018032797	0
8	290	0.9	1
8	311	0.909018032913	0
8	321	1	1
8	342	1.009018033042	0
8	352	1.1	1
8	373	1.109018033184	0
8	383	1.2	1
8	404	1.209018033339	0
8	414	1.3	1
8	435	1.309018033505	0
8	445	1.4	1
8	466	1.409018033684	0
8	476	1.5	1
8	497	1.509018033877	0
8	507	1.6	1
8	528	1.60901803408	0
8	538	1.7	1
8	559	1.709018034296	0
8	569	1.8	1
8	590	1.809018034522	0
8	600	1.9	1
8	621	1.909018034761	0
8	631	2	1
8	652	2.00901803501	0
8	662	2.1	1
8	683	2.10901803527	0
8	693	2.2	1
8	714	2.20901803554	0
8	724	2.3	1
8	745	2.309018035822	0
8	755	2.4	1
8	776	2.409018036113	0
8	786	2.5	1
8	807	2.509018036415	0
8	817	2.6	1
8	838	2.609018036726	0
8	848	2.7	1
8	869	2.709018037046	0
8	879	2.8	1
8	900	2.809018037375	0
8	910	2.9	1
8	931	2.909018037713	0
8	941	3	1
8	962	3.009018038061	0
8	972	3.1	1
8	993	3.109018038416	0
8	1003	3.2	1
8	1024	3.20901803878	0
8	1034	3.3	1
8	1055	3.309018039152	0
8	1065	3.4	1
8	1086	3.409018039531	0
8	1096	3.5	1
8	1117	3.509018039919	0
8	1127	3.6	1
8	1148	3.609018040313	0
8	1158	3.7	1
8	1179	3.709018040714	0
8	1189	3.8	1
8	1210	3.809018041122	0
8	1220	3.9	1
8	1241	3.909018041538	0
8	1251	4	1
8	1272	4.009018041959	0
8	1282	4.1	1
8	1303	4.109018042387	0
8	1313	4.2	1
8	1334	4.209018042821	0
8	1344	4.3	1
8	1365	4.309018043261	0
8	1375	4.4	1
8	1396	4.409018043706	0
8	1406	4.5	1
8	1427	4.509018044158	0
8	1437	4.6	1
8	1458	4.609018044614	0
8	1468	4.7	1
8	1489	4.709018045076	0
8	1499	4.8	1
8	1520	4.809018045543	0
8	1530	4.9	1
8	1551	4.909018046015	0
8	1561	5	1
8	1582	5.009018046491	0
8	1592	5.1	1
8	1613	5.109018046973	0
8	1623	5.2	1
8	1644	5.209018047459	0
8	1654	5.3	1
8	1675	5.309018047949	0
8	1685	5.4	1
8	1706	5.409018048444	0
8	1716	5.5	1
8	1737	5.509018048942	0
8	1747	5.6	1
8	1768	5.609018049444	0
8	1778	5.7	1
8	1799	5.709018049951	0
8	1809	5.8	1
8	1830	5.809018050461	0
8	1840	5.9	1
8	1861	5.909018050975	0
8	1871	6	1
8	1892	6.009018051492	0
8	1902	6.1	1
8	1923	6.109018052013	0
8	1933	6.2	1
8	1954	6.209018052537	0
8	1964	6.3	1
8	1985	6.309018053063	0
8	1995	6.4	1
8	2016	6.409018053595	0
8	2026	6.5	1
8	2047	6.509018054127	0
8	2057	6.6	1
8	2078	6.609018054664	0
8	2088	6.7	1
8	2109	6.709018055203	0
8	2119	6.8	1
8	2140	6.809018055745	0
8	2150	6.9	1
8	2171	6.90901805629	0
8	2181	7	1
8	2202	7.009018056836	0
8	2212	7.1	1
8	2233	7.109018057386	0
8	2243	7.2	1
8	2264	7.209018057938	0
8	2274	7.3	1
8	2295	7.309018058493	0
8	2305	7.4	1
8	2326	7.40901805905	0
8	2336	7.5	1
8	2357	7.509018059609	0
8	2367	7.6	1
8	2388	7.609018060171	0
8	2398	7.7	1
8	2419	7.709018060734	0
8	2429	7.8	1
8	2450	7.8090180613	0
8	2460	7.9	1
8	2481	7.909018061867	0
8	2491	8	1
8	2512	8.009018062437	0
8	2522	8.1	1
8	2543	8.109018063009	0
8	2553	8.2	1
8	2574	8.209018063581	0
8	2584	8.3	1
8	2605	8.309018064157	0
8	2615	8.4	1
8	2636	8.409018064734	0
8	2646	8.5	1
8	2667	8.509018065313	0
8	2677	8.6	1
8	2698	8.609018065893	0
8	2708	8.7	1
8	2729	8.709018066475	0
8	2739	8.8	1
8	2760	8.809018067059	0
8	2770	8.9	1
8	2791	8.909018067644	0
8	2801	9	1
8	2822	9.00901806823	0
8	2832	9.1	1
8	2853	9.109018068818	0
8	2863	9.2	1
8	2884	9.209018069408	0
8	2894	9.3	1
8	2915	9.309018069998	0
8	2925	9.4	1
8	2946	9.409018070591	0
8	2956	9.5	1
8	2977	9.509018071184	0
8	2987	9.6	1
8	3008	9.60901807178	0
8	3018	9.7	1
8	3039	9.709018072376	0
8	3049	9.8	1
8	3070	9.809018072972	0
8	3080	9.9	1
8	3101	9.909018073572	0
8	3111	10	1
8	3132	10.009018074172	0
8	3142	10.1	1
8	3163	10.109018074772	0
8	3173	10.2	1
8	3194	10.209018075374	0
8	3204	10.3	1
8	3225	10.309018075977	0
8	3235	10.4	1
8	3256	10.409018076581	0
8	3266	10.5	1
8	3287	10.509018077186	0
8	3297	10.6	1
8	3318	10.609018077793	0
8	3328	10.7	1
8	3349	10.7090180784	0
8	3359	10.8	1
8	3380	10.809018079008	0
8	3390	10.9	1
8	3411	10.909018079617	0
8	3421	11	1
8	3442	11.009018080227	0
8	3452	11.1	1
8	3473	11.109018080838	0
8	3483	11.2	1
8	3504	11.20901808145	0
8	3514	11.3	1
8	3535	11.309018082063	0
8	3545	11.4	1
8	3566	11.409018082676	0
8	3576	11.5	1
8	3597	11.509018083291	0
8	3607	11.6	1
8	3628	11.609018083905	0
8	3638	11.7	1
8	3659	11.709018084521	0
8	3669	11.8	1
8	3690	11.809018085138	0
8	3700	11.9	1
8	3721	11.909018085755	0
8	3731	12	1
8	3752	12.009018086373	0
8	3762	12.1	1
8	3783	12.109018086993	0
8	3793	12.2	1
8	3814	12.209018087613	0
8	3824	12.3	1
8	3845	12.309018088233	0
8	3855	12.4	1
8	3876	12.409018088853	0
8	3886	12.5	1
8	3907	12.509018089475	0
8	3917	12.6	1
8	3938	12.609018090097	0
8	3948	12.7	1
8	3969	12.709018090721	0
8	3979	12.8	1
8	4000	12.809018091344	0
8	4010	12.9	1
8	4031	12.909018091968	0
8	4041	13	1
8	4062	13.009018092593	0
8	4072	13.1	1
8	4093	13.109018093219	0
8	4103	13.2	1
8	4124	13.209018093844	0
8	4134	13.3	1
8	4155	13.309018094471	0
8	4165	13.4	1
8	4186	13.409018095098	0
8	4196	13.5	1
8	4217	13.509018095725	0
8	4227	13.6	1
8	4248	13.609018096353	0
8	4258	13.7	1
8	4279	13.709018096982	0
8	4289	13.8	1
8	4310	13.809018097611	0
8	4320	13.9	1
8	4341	13.909018098241	0
8	4351	14	1
8	4372	14.009018098871	0
8	4382	14.1	1
8	4403	14.109018099502	0
8	4413	14.2	1
8	4434	14.209018100133	0
8	4444	14.3	1
8	4465	14.309018100764	0
8	4475	14.4	1
8	4496	14.409018101396	0
8	4506	14.5	1
8	4527	14.509018102029	0
8	4537	14.6	1
8	4558	14.609018102662	0
8	4568	14.7	1
8	4589	14.709018103295	0
8	4599	14.8	1
8	4620	14.809018103929	0
8	4630	14.9	1
8	4651	14.909018104563	0
8	4661	15	1
8	4682	15.009018105198	0
8	4692	15.1	1
8	4713	15.109018105833	0
8	4723	15.2	1
8	4744	15.209018106468	0
8	4754	15.3	1
8	4775	15.309018107104	0
8	4785	15.4	1
8	4806	15.40901810774	0
8	4816	15.5	1
8	4837	15.509018108376	0
8	4847	15.6	1
8	4868	15.609018109014	0
8	4878	15.7	1
8	4899	15.70901810965	0
8	4909	15.8	1
8	4930	15.809018110288	0
8	4940	15.9	1
8	4961	15.909018110926	0
8	4971	16	1
8	4992	16.009018111564	0
8	5002	16.1	1
8	5023	16.109018112203	0
8	5033	16.2	1
8	5054	16.209018112842	0
8	5064	16.3	1
8	5085	16.309018113482	0
8	5095	16.4	1
8	5116	16.409018114121	0
8	5126	16.5	1
8	5147	16.50901811476	0
8	5157	16.6	1
8	5178	16.609018115401	0
8	5188	16.7	1
8	5209	16.709018116042	0
8	5219	16.8	1
8	5240	16.809018116682	0
8	5250	16.9	1
8	5271	16.909018117324	0
8	5281	17	1
8	5302	17.009018117964	0
8	5312	17.1	1
8	5333	17.109018118606	0
8	5343	17.2	1
8	5364	17.209018119248	0
8	5374	17.3	1
8	5395	17.30901811989	0
8	5405	17.4	1
8	5426	17.409018120534	0
8	5436	17.5	1
8	5457	17.509018121176	0
8	5467	17.6	1
8	5488	17.60901812182	0
8	5498	17.7	1
8	5519	17.709018122462	0
8	5529	17.8	1
8	5550	17.809018123106	0
8	5560	17.9	1
8	5581	17.90901812375	0
8	5591	18	1
8	5612	18.009018124394	0
8	5622	18.1	1
8	5643	18.109018125038	0
8	5653	18.2	1
8	5674	18.209018125682	0
8	5684	18.3	1
8	5705	18.309018126328	0
8	5715	18.4	1
8	5736	18.409018126972	0
8	5746	18.5	1
8	5767	18.509018127618	0
8	5777	18.6	1
8	5798	18.609018128263	0
8	5808	18.7	1
8	5829	18.709018128908	0
8	5839	18.8	1
8	5860	18.809018129554	0
8	5870	18.9	1
8	5891	18.9090181302	0
8	5901	19	1
8	5922	19.009018130847	0
8	5932	19.1	1
8	5953	19.109018131494	0
8	5963	19.2	1
8	5984	19.20901813214	0
8	5994	19.3	1
8	6015	19.309018132787	0
8	6025	19.4	1
8	6046	19.409018133434	0
8	6056	19.5	1
8	6077	19.509018134082	0
8	6087	19.6	1
8	6108	19.609018134729	0
8	6118	19.7	1
8	6139	19.709018135376	0
8	6149	19.8	1
8	6170	19.809018136024	0
8	6180	19.9	1
8	6201	19.909018136672	0
8	6211	20	1
8	6232	20.009018137321	0
8	6242	20.1	1
8	6263	20.10901813797	0
8	6273	20.2	1
8	6294	20.209018138618	0
8	6304	20.3	1
8	6325	20.309018139267	0
8	6335	20.4	1
8	6356	20.409018139916	0
8	6366	20.5	1
8	6387	20.509018140565	0
8	6397	20.6	1
8	6418	20.609018141214	0
8	6428	20.7	1
8	6449	20.709018141864	0
8	6459	20.8	1
8	6480	20.809018142513	0
8	6490	20.9	1
8	6511	20.909018143163	0
8	6521	21	1
8	6542	21.009018143813	0
8	6552	21.1	1
8	6573	21.109018144463	0
8	6583	21.2	1
8	6604	21.209018145114	0
8	6614	21.3	1
8	6635	21.309018145764	0
8	6645	21.4	1
8	6666	21.409018146414	0
8	6676	21.5	1
8	6697	21.509018147065	0
8	6707	21.6	1
8	6728	21.609018147716	0
8	6738	21.7	1
8	6759	21.709018148367	0
8	6769	21.8	1
8	6790	21.809018149018	0
8	6800	21.9	1
8	6821	21.909018149669	0
8	6831	22	1
8	6852	22.009018150321	0
8	6862	22.1	1
8	6883	22.109018150972	0
8	6893	22.2	1
8	6914	22.209018151624	0
8	6924	22.3	1
8	6945	22.309018152276	0
8	6955	22.4	1
8	6976	22.409018152928	0
8	6986	22.5	1
8	7007	22.50901815358	0
8	7017	22.6	1
8	7038	22.609018154232	0
8	7048	22.7	1
8	7069	22.709018154884	0
8	7079	22.8	1
8	7100	22.809018155537	0
8	7110	22.9	1
8	7131	22.90901815619	0
8	7141	23	1
8	7162	23.009018156842	0
8	7172	23.1	1
8	7193	23.109018157495	0
8	7203	23.2	1
8	7224	23.209018158148	0
8	7234	23.3	1
8	7255	23.309018158801	0
8	7265	23.4	1
8	7286	23.409018159454	0
8	7296	23.5	1
8	7317	23.509018160108	0
8	7327	23.6	1
8	7348	23.609018160761	0
8	7358	23.7	1
8	7379	23.709018161415	0
8	7389	23.8	1
8	7410	23.809018162068	0
8	7420	23.9	1
8	7441	23.909018162722	0
8	7451	24	1
8	7472	24.009018163376	0
8	7482	24.1	1
8	7503	24.10901816403	0
8	7513	24.2	1
8	7534	24.209018164684	0
8	7544	24.3	1
8	7565	24.309018165338	0
8	7575	24.4	1
8	7596	24.409018165992	0
8	7606	24.5	1
8	7627	24.509018166647	0
8	7637	24.6	1
8	7658	24.609018167301	0
8	7668	24.7	1
8	7689	24.709018167956	0
8	7699	24.8	1
8	7720	24.80901816861	0
8	7730	24.9	1
8	7751	24.909018169265	0
8	7761	25	1
8	7782	25.00901816992	0
8	7792	25.1	1
8	7813	25.109018170575	0
8	7823	25.2	1
8	7844	25.20901817123	0
8	7854	25.3	1
8	7875	25.309018171885	0
8	7885	25.4	1
8	7906	25.409018172541	0
8	7916	25.5	1
8	7937	25.509018173196	0
8	7947	25.6	1
8	7968	25.609018173851	0
8	7978	25.7	1
8	7999	25.709018174507	0
8	8009	25.8	1
8	8030	25.809018175162	0
8	8040	25.9	1
8	8061	25.909018175818	0
8	8071	26	1
8	8092	26.009018176474	0
8	8102	26.1	1
8	8123	26.10901817713	0
8	8133	26.2	1
8	8154	26.209018177786	0
8	8164	26.3	1
8	8185	26.309018178442	0
8	8195	26.4	1
8	8216	26.409018179098	0
8	8226	26.5	1
8	8247	26.509018179754	0
8	8257	26.6	1
8	8278	26.60901818041	0
8	8288	26.7	1
8	8309	26.709018181067	0
8	8319	26.8	1
8	8340	26.809018181723	0
8	8350	26.9	1
8	8371	26.909018182379	0
8	8381	27	1
8	8402	27.009018183036	0
8	8412	27.1	1
8	8433	27.109018183693	0
8	8443	27.2	1
8	8464	27.209018184349	0
8	8474	27.3	1
8	8495	27.309018185006	0
8	8505	27.4	1
8	8526	27.409018185663	0
8	8536	27.5	1
8	8557	27.50901818632	0
8	8567	27.6	1
8	8588	27.609018186977	0
8	8598	27.7	1
8	8619	27.709018187634	0
8	8629	27.8	1
8	8650	27.809018188291	0
8	8660	27.9	1
8	8681	27.909018188949	0
8	8691	28	1
8	8712	28.009018189606	0
8	8722	28.1	1
8	8743	28.109018190263	0
8	8753	28.2	1
8	8774	28.209018190921	0
8	8784	28.3	1
8	8805	28.309018191579	0
8	8815	28.4	1
8	8836	28.409018192236	0
8	8846	28.5	1
8	8867	28.509018192893	0
8	8877	28.6	1
8	8898	28.609018193551	0
8	8908	28.7	1
8	8929	28.709018194209	0
8	8939	28.8	1
8	8960	28.809018194867	0
8	8970	28.9	1
8	8991	28.909018195525	0
8	9001	29	1
8	9022	29.009018196183	0
8	9032	29.1	1
8	9053	29.109018196841	0
8	9063	29.2	1
8	9084	29.209018197499	0
8	9094	29.3	1
8	9115	29.309018198157	0
8	9125	29.4	1
8	9146	29.409018198815	0
8	9156	29.5	1
8	9177	29.509018199473	0
8	9187	29.6	1
8	9208	29.609018200132	0
8	9218	29.7	1
8	9239	29.70901820079	0
8	9249	29.8	1
8	9270	29.809018201449	0
8	9280	29.9	1
8	9301	29.909018202107	0
8	9311	30	1
8	9332	30.009018202766	0
8	9342	30.1	1
8	9363	30.109018203425	0
8	9373	30.2	1
8	9394	30.209018204083	0
8	9404	30.3	1
8	9425	30.309018204741	0
8	9435	30.4	1
8	9456	30.409018205401	0
8	9466	30.5	1
8	9487	30.509018206059	0
8	9497	30.6	1
8	9518	30.609018206718	0
8	9528	30.7	1
8	9549	30.709018207377	0
8	9559	30.8	1
8	9580	30.809018208036	0
8	9590	30.9	1
8	9611	30.909018208695	0
8	9621	31	1
8	9642	31.009018209354	0
8	9652	31.1	1
8	9673	31.109018210013	0
8	9683	31.2	1
8	9704	31.209018210673	0
8	9714	31.3	1
8	9735	31.309018211332	0
8	9745	31.4	1
8	9766	31.409018211991	0
8	9776	31.5	1
8	9797	31.509018212651	0
8	9807	31.6	1
8	9828	31.60901821331	0
8	9838	31.7	1
8	9859	31.709018213969	0
8	9869	31.8	1
8	9890	31.809018214629	0
8	9900	31.9	1
8	9921	31.909018215288	0
8	9931	32	1
8	9952	32.009018215948	0
8	9962	32.1	1
8	9983	32.109018216607	0
8	9993	32.2	1
8	10014	32.209018217267	0
8	10024	32.3	1
8	10045	32.309018217927	0
8	10055	32.4	1
8	10076	32.409018218587	0
8	10086	32.5	1
8	10107	32.509018219247	0
8	10117	32.6	1
8	10138	32.609018219906	0
8	10148	32.7	1
8	10169	32.709018220566	0
8	10179	32.8	1
8	10200	32.809018221226	0
8	10210	32.9	1
8	10231	32.909018221886	0
8	10241	33	1
8	10262	33.009018222546	0
8	10272	33.1	1
8	10293	33.109018223206	0
8	10303	33.2	1
8	10324	33.209018223866	0
8	10334	33.3	1
8	10355	33.309018224527	0
8	10365	33.4	1
8	10386	33.409018225187	0
8	10396	33.5	1
8	10417	33.509018225847	0
8	10427	33.6	1
8	10448	33.609018226507	0
8	10458	33.7	1
8	10479	33.709018227167	0
8	10489	33.8	1
8	10510	33.809018227827	0
8	10520	33.9	1
8	10541	33.909018228488	0
8	10551	34	1
8	10572	34.009018229149	0
8	10582	34.1	1
8	10603	34.109018229809	0
8	10613	34.2	1
8	10634	34.209018230469	0
8	10644	34.3	1
8	10665	34.30901823113	0
8	10675	34.4	1
8	10696	34.409018231791	0
8	10706	34.5	1
8	10727	34.509018232451	0
8	10737	34.6	1
8	10758	34.609018233112	0
8	10768	34.7	1
8	10789	34.709018233773	0
8	10799	34.8	1
8	10820	34.809018234433	0
8	10830	34.9	1
8	10851	34.909018235094	0
8	10861	35	1
8	10882	35.009018235755	0
8	10892	35.1	1
8	10913	35.109018236415	0
8	10923	35.2	1
8	10944	35.209018237077	0
8	10954	35.3	1
8	10975	35.309018237737	0
8	10985	35.4	1
8	11006	35.409018238399	0
8	11016	35.5	1
8	11037	35.509018239059	0
8	11047	35.6	1
8	11068	35.609018239721	0
8	11078	35.7	1
8	11099	35.709018240381	0
8	11109	35.8	1
8	11130	35.809018241043	0
8	11140	35.9	1
8	11161	35.909018241703	0
8	11171	36	1
8	11192	36.009018242365	0
8	11202	36.1	1
8	11223	36.109018243026	0
8	11233	36.2	1
8	11254	36.209018243687	0
8	11264	36.3	1
8	11285	36.309018244349	0
8	11295	36.4	1
8	11316	36.409018245009	0
8	11326	36.5	1
8	11347	36.509018245671	0
8	11357	36.6	1
8	11378	36.609018246333	0
8	11388	36.7	1
8	11409	36.709018246993	0
8	11419	36.8	1
8	11440	36.809018247655	0
8	11450	36.9	1
8	11471	36.909018248317	0
8	11481	37	1
8	11502	37.009018248978	0
8	11512	37.1	1
8	11533	37.109018249639	0
8	11543	37.2	1
8	11564	37.209018250301	0
8	11574	37.3	1
8	11595	37.309018250963	0
8	11605	37.4	1
8	11626	37.409018251624	0
8	11636	37.5	1
8	11657	37.509018252285	0
8	11667	37.6	1
8	11688	37.609018252947	0
8	11698	37.7	1
8	11719	37.709018253609	0
8	11729	37.8	1
8	11750	37.809018254271	0
8	11760	37.9	1
8	11781	37.909018254933	0
8	11791	38	1
8	11812	38.009018255594	0
8	11822	38.1	1
8	11843	38.109018256255	0
8	11853	38.2	1
8	11874	38.209018256917	0
8	11884	38.3	1
8	11905	38.309018257579	0
8	11915	38.4	1
8	11936	38.409018258241	0
8	11946	38.5	1
8	11967	38.509018258903	0
8	11977	38.6	1
8	11998	38.609018259565	0
8	12008	38.7	1
8	12029	38.709018260227	0
8	12039	38.8	1
8	12060	38.809018260889	0
8	12070	38.9	1
8	12091	38.909018261551	0
8	12101	39	1
8	12122	39.009018262213	0
8	12132	39.1	1
8	12153	39.109018262875	0
8	12163	39.2	1
8	12184	39.209018263537	0
8	12194	39.3	1
8	12215	39.309018264199	0
8	12225	39.4	1
8	12246	39.409018264861	0
8	12256	39.5	1
8	12277	39.509018265523	0
8	12287	39.6	1
8	12308	39.609018266185	0
8	12318	39.7	1
8	12339	39.709018266847	0
8	12349	39.8	1
8	12370	39.80901826751	0
8	12380	39.9	1
8	12401	39.909018268173	0
8	12411	40	1
8	12432	40.009018268835	0
8	12442	40.1	1
8	12463	40.109018269497	0
8	12473	40.2	1
8	12494	40.209018270159	0
8	12504	40.3	1
8	12525	40.309018270821	0
8	12535	40.4	1
8	12556	40.409018271483	0
8	12566	40.5	1
8	12587	40.509018272147	0
8	12597	40.6	1
8	12618	40.609018272809	0
8	12628	40.7	1
8	12649	40.709018273471	0
8	12659	40.8	1
8	12680	40.809018274133	0
8	12690	40.9	1
8	12711	40.909018274796	0
8	12721	41	1
8	12742	41.009018275459	0
8	12752	41.1	1
8	12773	41.109018276121	0
8	12783	41.2	1
8	12804	41.209018276783	0
8	12814	41.3	1
8	12835	41.309018277446	0
8	12845	41.4	1
8	12866	41.409018278109	0
8	12876	41.5	1
8	12897	41.509018278771	0
8	12907	41.6	1
8	12928	41.609018279434	0
8	12938	41.7	1
8	12959	41.709018280097	0
8	12969	41.8	1
8	12990	41.809018280759	0
8	13000	41.9	1
8	13021	41.909018281422	0
8	13031	42	1
8	13052	42.009018282085	0
8	13062	42.1	1
8	13083	42.109018282747	0
8	13093	42.2	1
8	13114	42.209018283411	0
8	13124	42.3	1
8	13145	42.309018284073	0
8	13155	42.4	1
8	13176	42.409018284735	0
8	13186	42.5	1
8	13207	42.509018285399	0
8	13217	42.6	1
8	13238	42.609018286061	0
8	13248	42.7	1
8	13269	42.709018286725	0
8	13279	42.8	1
8	13300	42.809018287387	0
8	13310	42.9	1
8	13331	42.90901828805	0
8	13341	43	1
8	13362	43.009018288713	0
8	13372	43.1	1
8	13393	43.109018289376	0
8	13403	43.2	1
8	13424	43.209018290039	0
8	13434	43.3	1
8	13455	43.309018290701	0
8	13465	43.4	1
8	13486	43.409018291365	0
8	13496	43.5	1
8	13517	43.509018292027	0
8	13527	43.6	1
8	13548	43.609018292691	0
8	13558	43.7	1
8	13579	43.709018293354	0
8	13589	43.8	1
8	13610	43.809018294017	0
8	13620	43.9	1
8	13641	43.90901829468	0
8	13651	44	1
8	13672	44.009018295343	0
8	13682	44.1	1
8	13703	44.109018296007	0
8	13713	44.2	1
8	13734	44.209018296669	0
8	13744	44.3	1
8	13765	44.309018297333	0
8	13775	44.4	1
8	13796	44.409018297995	0
8	13806	44.5	1
8	13827	44.509018298659	0
8	13837	44.6	1
8	13858	44.609018299323	0
8	13868	44.7	1
8	13889	44.709018299985	0
8	13899	44.8	1
8	13920	44.809018300649	0
8	13930	44.9	1
8	13951	44.909018301311	0
8	13961	45	1
8	13982	45.009018301975	0
8	13992	45.1	1
8	14013	45.109018302639	0
8	14023	45.2	1
8	14044	45.209018303301	0
8	14054	45.3	1
8	14075	45.309018303965	0
8	14085	45.4	1
8	14106	45.409018304629	0
8	14116	45.5	1
8	14137	45.509018305291	0
8	14147	45.6	1
8	14168	45.609018305955	0
8	14178	45.7	1
8	14199	45.709018306619	0
8	14209	45.8	1
8	14230	45.809018307282	0
8	14240	45.9	1
8	14261	45.909018307945	0
8	14271	46	1
8	14292	46.009018308609	0
8	14302	46.1	1
8	14323	46.109018309273	0
8	14333	46.2	1
8	14354	46.209018309935	0
8	14364	46.3	1
8	14385	46.309018310599	0
8	14395	46.4	1
8	14416	46.409018311263	0
8	14426	46.5	1
8	14447	46.509018311927	0
8	14457	46.6	1
8	14478	46.609018312589	0
8	14488	46.7	1
8	14509	46.709018313253	0
8	14519	46.8	1
8	14540	46.809018313917	0
8	14550	46.9	1
8	14571	46.909018314581	0
8	14581	47	1
8	14602	47.009018315245	0
8	14612	47.1	1
8	14633	47.109018315907	0
8	14643	47.2	1
8	14664	47.209018316571	0
8	14674	47.3	1
8	14695	47.309018317235	0
8	14705	47.4	1
8	14726	47.409018317899	0
8	14736	47.5	1
8	14757	47.509018318563	0
8	14767	47.6	1
8	14788	47.609018319226	0
8	14798	47.7	1
8	14819	47.709018319889	0
8	14829	47.8	1
8	14850	47.809018320553	0
8	14860	47.9	1
8	14881	47.909018321217	0
8	14891	48	1
8	14912	48.009018321881	0
8	14922	48.1	1
8	14943	48.109018322545	0
8	14953	48.2	1
8	14974	48.209018323209	0
8	14984	48.3	1
8	15005	48.309018323873	0
8	15015	48.4	1
8	15036	48.409018324536	0
8	15046	48.5	1
8	15067	48.509018325199	0
8	15077	48.6	1
8	15098	48.609018325863	0
8	15108	48.7	1
8	15129	48.709018326527	0
8	15139	48.8	1
8	15160	48.809018327191	0
8	15170	48.9	1
8	15191	48.909018327855	0
8	15201	49	1
8	15222	49.009018328519	0
8	15232	49.1	1
8	15253	49.109018329183	0
8	15263	49.2	1
8	15284	49.209018329847	0
8	15294	49.3	1
8	15315	49.309018330511	0
8	15325	49.4	1
8	15346	49.409018331175	0
8	15356	49.5	1
8	15377	49.509018331839	0
8	15387	49.6	1
8	15408	49.609018332503	0
8	15418	49.7	1
8	15439	49.709018333167	0
8	15449	49.8	1
8	15470	49.809018333831	0
8	15480	49.9	1
8	15501	49.909018334495	0
8	15511	50	1
8	15532	50.009018335159	0
8	15542	50.1	1
8	15563	50.109018335823	0
8	15573	50.2	1
8	15594	50.209018336487	0
8	15604	50.3	1
8	15625	50.309018337151	0
8	15635	50.4	1
8	15656	50.409018337815	0
8	15666	50.5	1
8	15687	50.509018338479	0
8	15697	50.6	1
8	15718	50.609018339143	0
8	15728	50.7	1
8	15749	50.709018339807	0
8	15759	50.8	1
8	15780	50.809018340471	0
8	15790	50.9	1
8	15811	50.909018341135	0
8	15821	51	1
8	15842	51.009018341799	0
8	15852	51.1	1
8	15873	51.109018342463	0
8	15883	51.2	1
8	15904	51.209018343127	0
8	15914	51.3	1
8	15935	51.309018343791	0
8	15945	51.4	1
8	15966	51.409018344456	0
8	15976	51.5	1
8	15997	51.509018345121	0
8	16007	51.6	1
8	16028	51.609018345785	0
8	16038	51.7	1
8	16059	51.709018346449	0
8	16069	51.8	1
8	16090	51.809018347113	0
8	16100	51.9	1
8	16121	51.909018347777	0
8	16131	52	1
8	16152	52.009018348441	0
8	16162	52.1	1
8	16183	52.109018349105	0
8	16193	52.2	1
8	16214	52.209018349769	0
8	16224	52.3	1
8	16245	52.309018350434	0
8	16255	52.4	1
8	16276	52.409018351099	0
8	16286	52.5	1
8	16307	52.509018351763	0
8	16317	52.6	1
8	16338	52.609018352427	0
8	16348	52.7	1
8	16369	52.709018353091	0
8	16379	52.8	1
8	16400	52.809018353755	0
8	16410	52.9	1
8	16431	52.909018354419	0
8	16441	53	1
8	16462	53.009018355085	0
8	16472	53.1	1
8	16493	53.109018355749	0
8	16503	53.2	1
8	16524	53.209018356413	0
8	16534	53.3	1
8	16555	53.309018357077	0
8	16565	53.4	1
8	16586	53.409018357741	0
8	16596	53.5	1
8	16617	53.509018358407	0
8	16627	53.6	1
8	16648	53.609018359071	0
8	16658	53.7	1
8	16679	53.709018359735	0
8	16689	53.8	1
8	16710	53.809018360399	0
8	16720	53.9	1
8	16741	53.909018361063	0
8	16751	54	1
8	16772	54.009018361729	0
8	16782	54.1	1
8	16803	54.109018362393	0
8	16813	54.2	1
8	16834	54.209018363057	0
8	16844	54.3	1
8	16865	54.309018363721	0
8	16875	54.4	1
8	16896	54.409018364387	0
8	16906	54.5	1
8	16927	54.509018365051	0
8	16937	54.6	1
8	16958	54.609018365715	0
8	16968	54.7	1
8	16989	54.709018366379	0
8	16999	54.8	1
8	17020	54.809018367045	0
8	17030	54.9	1
8	17051	54.909018367709	0
8	17061	55	1
8	17082	55.009018368373	0
8	17092	55.1	1
8	17113	55.109018369037	0
8	17123	55.2	1
8	17144	55.209018369703	0
8	17154	55.3	1
8	17175	55.309018370367	0
8	17185	55.4	1
8	17206	55.409018371031	0
8	17216	55.5	1
8	17237	55.509018371697	0
8	17247	55.6	1
8	17268	55.609018372361	0
8	17278	55.7	1
8	17299	55.709018373025	0
8	17309	55.8	1
8	17330	55.80901837369	0
8	17340	55.9	1
8	17361	55.909018374355	0
8	17371	56	1
8	17392	56.009018375019	0
8	17402	56.1	1
8	17423	56.109018375683	0
8	17433	56.2	1
8	17454	56.209018376349	0
8	17464	56.3	1
8	17485	56.309018377013	0
8	17495	56.4	1
8	17516	56.409018377677	0
8	17526	56.5	1
8	17547	56.509018378343	0
8	17557	56.6	1
8	17578	56.609018379007	0
8	17588	56.7	1
8	17609	56.709018379671	0
8	17619	56.8	1
8	17640	56.809018380337	0
8	17650	56.9	1
8	17671	56.909018381001	0
8	17681	57	1
8	17702	57.009018381667	0
8	17712	57.1	1
8	17733	57.109018382331	0
8	17743	57.2	1
8	17764	57.209018382995	0
8	17774	57.3	1
8	17795	57.309018383661	0
8	17805	57.4	1
8	17826	57.409018384325	0
8	17836	57.5	1
8	17857	57.509018384989	0
8	17867	57.6	1
8	17888	57.609018385655	0
8	17898	57.7	1
8	17919	57.709018386319	0
8	17929	57.8	1
8	17950	57.809018386985	0
8	17960	57.9	1
8	17981	57.909018387649	0
8	17991	58	1
8	18012	58.009018388313	0
8	18022	58.1	1
8	18043	58.109018388979	0
8	18053	58.2	1
8	18074	58.209018389643	0
8	18084	58.3	1
8	18105	58.309018390309	0
8	18115	58.4	1
8	18136	58.409018390973	0
8	18146	58.5	1
8	18167	58.509018391637	0
8	18177	58.6	1
8	18198	58.609018392303	0
8	18208	58.7	1
8	18229	58.709018392967	0
8	18239	58.8	1
8	18260	58.809018393633	0
8	18270	58.9	1
8	18291	58.909018394297	0
8	18301	59	1
8	18322	59.009018394963	0
8	18332	59.1	1
8	18353	59.109018395627	0
8	18363	59.2	1
8	18384	59.209018396292	0
8	18394	59.3	1
8	18415	59.309018396957	0
8	18425	59.4	1
8	18446	59.409018397621	0
8	18456	59.5	1
8	18477	59.509018398287	0
8	18487	59.6	1
8	18508	59.609018398951	0
8	18518	59.7	1
8	18539	59.709018399617	0
8	18549	59.8	1
8	18570	59.809018400281	0
8	18580	59.9	1
8	18601	59.909018400947	0
8	18611	60	1
8	18632	60.009018401611	0
8	18642	60.1	1
8	18663	60.109018402277	0
8	18673	60.2	1
8	18694	60.209018402941	0
8	18704	60.3	1
8	18725	60.309018403607	0
8	18735	60.4	1
8	18756	60.409018404271	0
8	18766	60.5	1
8	18787	60.509018404937	0
8	18797	60.6	1
8	18818	60.609018405601	0
8	18828	60.7	1
8	18849	60.709018406267	0
8	18859	60.8	1
8	18880	60.809018406931	0
8	18890	60.9	1
8	18911	60.909018407597	0
8	18921	61	1
8	18942	61.009018408261	0
8	18952	61.1	1
8	18973	61.109018408927	0
8	18983	61.2	1
8	19004	61.209018409591	0
8	19014	61.3	1
8	19035	61.309018410257	0
8	19045	61.4	1
8	19066	61.409018410921	0
8	19076	61.5	1
8	19097	61.509018411587	0
8	19107	61.6	1
8	19128	61.609018412251	0
8	19138	61.7	1
8	19159	61.709018412917	0
8	19169	61.8	1
8	19190	61.809018413581	0
8	19200	61.9	1
8	19221	61.909018414247	0
8	19231	62	1
8	19252	62.009018414913	0
8	19262	62.1	1
8	19283	62.109018415577	0
8	19293	62.2	1
8	19314	62.209018416243	0
8	19324	62.3	1
8	19345	62.309018416907	0
8	19355	62.4	1
8	19376	62.409018417573	0
8	19386	62.5	1
8	19407	62.509018418237	0
8	19417	62.6	1
8	19438	62.609018418903	0
8	19448	62.7	1
8	19469	62.709018419567	0
8	19479	62.8	1
8	19500	62.809018420233	0
8	19510	62.9	1
8	19531	62.909018420899	0
8	19541	63	1
8	19562	63.009018421563	0
8	19572	63.1	1
8	19593	63.109018422229	0
8	19603	63.2	1
8	19624	63.209018422893	0
8	19634	63.3	1
8	19655	63.309018423559	0
8	19665	63.4	1
8	19686	63.409018424225	0
8	19696	63.5	1
8	19717	63.509018424889	0
8	19727	63.6	1
8	19748	63.609018425555	0
8	19758	63.7	1
8	19779	63.709018426219	0
8	19789	63.8	1
8	19810	63.809018426885	0
8	19820	63.9	1
8	19841	63.909018427551	0
8	19851	64	1
8	19872	64.009018428215	0
8	19882	64.1	1
8	19903	64.109018428881	0
8	19913	64.2	1
8	19934	64.209018429545	0
8	19944	64.3	1
8	19965	64.309018430211	0
8	19975	64.4	1
8	19996	64.409018430877	0
8	20006	64.5	1
8	20027	64.509018431541	0
8	20037	64.6	1
8	20058	64.609018432207	0
8	20068	64.7	1
8	20089	64.709018432871	0
8	20099	64.8	1
8	20120	64.809018433537	0
8	20130	64.9	1
8	20151	64.909018434203	0
8	20161	65	1
8	20182	65.009018434867	0
8	20192	65.1	1
8	20213	65.109018435533	0
8	20223	65.2	1
8	20244	65.209018436199	0
8	20254	65.3	1
8	20275	65.309018436863	0
8	20285	65.4	1
8	20306	65.409018437529	0
8	20316	65.5	1
8	20337	65.509018438195	0
8	20347	65.6	1
8	20368	65.609018438859	0
8	20378	65.7	1
8	20399	65.709018439525	0
8	20409	65.8	1
8	20430	65.809018440191	0
8	20440	65.9	1
8	20461	65.909018440855	0
8	20471	66	1
8	20492	66.009018441521	0
8	20502	66.1	1
8	20523	66.109018442187	0
8	20533	66.2	1
8	20554	66.209018442851	0
8	20564	66.3	1
8	20585	66.309018443517	0
8	20595	66.4	1
8	20616	66.409018444183	0
8	20626	66.5	1
8	20647	66.509018444847	0
8	20657	66.6	1
8	20678	66.609018445513	0
8	20688	66.7	1
8	20709	66.709018446179	0
8	20719	66.8	1
8	20740	66.809018446843	0
8	20750	66.9	1
8	20771	66.909018447509	0
8	20781	67	1
8	20802	67.009018448175	0
8	20812	67.1	1
8	20833	67.109018448839	0
8	20843	67.2	1
8	20864	67.209018449505	0
8	20874	67.3	1
8	20895	67.309018450171	0
8	20905	67.4	1
8	20926	67.409018450837	0
8	20936	67.5	1
8	20957	67.509018451501	0
8	20967	67.6	1
8	20988	67.609018452167	0
8	20998	67.7	1
8	21019	67.709018452833	0
8	21029	67.8	1
8	21050	67.809018453497	0
8	21060	67.9	1
8	21081	67.909018454163	0
8	21091	68	1
8	21112	68.009018454829	0
8	21122	68.1	1
8	21143	68.109018455494	0
8	21153	68.2	1
8	21174	68.209018456159	0
8	21184	68.3	1
8	21205	68.309018456825	0
8	21215	68.4	1
8	21236	68.409018457491	0
8	21246	68.5	1
8	21267	68.509018458155	0
8	21277	68.6	1
8	21298	68.609018458821	0
8	21308	68.7	1
8	21329	68.709018459487	0
8	21339	68.8	1
8	21360	68.809018460153	0
8	21370	68.9	1
8	21391	68.909018460817	0
8	21401	69	1
8	21422	69.009018461483	0
8	21432	69.1	1
8	21453	69.109018462149	0
8	21463	69.2	1
8	21484	69.209018462815	0
8	21494	69.3	1
8	21515	69.309018463479	0
8	21525	69.4	1
8	21546	69.409018464145	0
8	21556	69.5	1
8	21577	69.509018464811	0
8	21587	69.6	1
8	21608	69.609018465477	0
8	21618	69.7	1
8	21639	69.709018466141	0
8	21649	69.8	1
8	21670	69.809018466807	0
8	21680	69.9	1
8	21701	69.909018467473	0
8	21711	70	1
8	21732	70.009018468139	0
8	21742	70.1	1
8	21763	70.109018468803	0
8	21773	70.2	1
8	21794	70.209018469469	0
8	21804	70.3	1
8	21825	70.309018470135	0
8	21835	70.4	1
8	21856	70.409018470801	0
8	21866	70.5	1
8	21887	70.509018471467	0
8	21897	70.6	1
8	21918	70.609018472131	0
8	21928	70.7	1
8	21949	70.709018472797	0
8	21959	70.8	1
8	21980	70.809018473463	0
8	21990	70.9	1
8	22011	70.909018474129	0
8	22021	71	1
8	22042	71.009018474793	0
8	22052	71.1	1
8	22073	71.109018475459	0
8	22083	71.2	1
8	22104	71.209018476125	0
8	22114	71.3	1
8	22135	71.309018476791	0
8	22145	71.4	1
8	22166	71.409018477457	0
8	22176	71.5	1
8	22197	71.509018478121	0
8	22207	71.6	1
8	22228	71.609018478787	0
8	22238	71.7	1
8	22259	71.709018479453	0
8	22269	71.8	1
8	22290	71.809018480119	0
8	22300	71.9	1
8	22321	71.909018480785	0
8	22331	72	1
8	22352	72.009018481449	0
8	22362	72.1	1
8	22383	72.109018482115	0
8	22393	72.2	1
8	22414	72.209018482781	0
8	22424	72.3	1
8	22445	72.309018483447	0
8	22455	72.4	1
8	22476	72.409018484113	0
8	22486	72.5	1
8	22507	72.509018484777	0
8	22517	72.6	1
8	22538	72.609018485443	0
8	22548	72.7	1
8	22569	72.709018486109	0
8	22579	72.8	1
8	22600	72.809018486775	0
8	22610	72.9	1
8	22631	72.909018487441	0
8	22641	73	1
8	22662	73.009018488107	0
8	22672	73.1	1
8	22693	73.109018488771	0
8	22703	73.2	1
8	22724	73.209018489437	0
8	22734	73.3	1
8	22755	73.309018490103	0
8	22765	73.4	1
8	22786	73.409018490769	0
8	22796	73.5	1
8	22817	73.509018491435	0
8	22827	73.6	1
8	22848	73.609018492101	0
8	22858	73.7	1
8	22879	73.709018492765	0
8	22889	73.8	1
8	22910	73.809018493431	0
8	22920	73.9	1
8	22941	73.909018494097	0
8	22951	74	1
8	22972	74.009018494763	0
8	22982	74.1	1
8	23003	74.109018495429	0
8	23013	74.2	1
8	23034	74.209018496095	0
8	23044	74.3	1
8	23065	74.309018496761	0
8	23075	74.4	1
8	23096	74.409018497425	0
8	23106	74.5	1
8	23127	74.509018498091	0
8	23137	74.6	1
8	23158	74.609018498757	0
8	23168	74.7	1
8	23189	74.709018499423	0
8	23199	74.8	1
8	23220	74.809018500089	0
8	23230	74.9	1
8	23251	74.909018500755	0
8	23261	75	1
8	23282	75.009018501421	0
8	23292	75.1	1
8	23313	75.109018502085	0
8	23323	75.2	1
8	23344	75.209018502751	0
8	23354	75.3	1
8	23375	75.309018503417	0
8	23385	75.4	1
8	23406	75.409018504083	0
8	23416	75.5	1
8	23437	75.509018504749	0
8	23447	75.6	1
8	23468	75.609018505415	0
8	23478	75.7	1
8	23499	75.709018506081	0
8	23509	75.8	1
8	23530	75.809018506747	0
8	23540	75.9	1
8	23561	75.909018507413	0
8	23571	76	1
8	23592	76.009018508077	0
8	23602	76.1	1
8	23623	76.109018508743	0
8	23633	76.2	1
8	23654	76.209018509409	0
8	23664	76.3	1
8	23685	76.309018510075	0
8	23695	76.4	1
8	23716	76.409018510741	0
8	23726	76.5	1
8	23747	76.509018511407	0
8	23757	76.6	1
8	23778	76.609018512073	0
8	23788	76.7	1
8	23809	76.709018512739	0
8	23819	76.8	1
8	23840	76.809018513405	0
8	23850	76.9	1
8	23871	76.909018514069	0
8	23881	77	1
8	23902	77.009018514735	0
8	23912	77.1	1
8	23933	77.109018515401	0
8	23943	77.2	1
8	23964	77.209018516067	0
8	23974	77.3	1
8	23995	77.309018516733	0
8	24005	77.4	1
8	24026	77.409018517399	0
8	24036	77.5	1
8	24057	77.509018518065	0
8	24067	77.6	1
8	24088	77.609018518731	0
8	24098	77.7	1
8	24119	77.709018519397	0
8	24129	77.8	1
8	24150	77.809018520063	0
8	24160	77.9	1
8	24181	77.909018520729	0
8	24191	78	1
8	24212	78.009018521393	0
8	24222	78.1	1
8	24243	78.109018522059	0
8	24253	78.2	1
8	24274	78.209018522725	0
8	24284	78.3	1
8	24305	78.309018523391	0
8	24315	78.4	1
8	24336	78.409018524057	0
8	24346	78.5	1
8	24367	78.509018524723	0
8	24377	78.6	1
8	24398	78.609018525389	0
8	24408	78.7	1
8	24429	78.709018526055	0
8	24439	78.8	1
8	24460	78.809018526721	0
8	24470	78.9	1
8	24491	78.909018527387	0
8	24501	79	1
8	24522	79.009018528053	0
8	24532	79.1	1
8	24553	79.109018528719	0
8	24563	79.2	1
8	24584	79.209018529385	0
8	24594	79.3	1
8	24615	79.309018530051	0
8	24625	79.4	1
8	24646	79.409018530717	0
8	24656	79.5	1
8	24677	79.509018531381	0
8	24687	79.6	1
8	24708	79.609018532047	0
8	24718	79.7	1
8	24739	79.709018532713	0
8	24749	79.8	1
8	24770	79.809018533379	0
8	24780	79.9	1
8	24801	79.909018534045	0
8	24811	80	1
8	24832	80.009018534711	0
8	24842	80.1	1
8	24863	80.109018535377	0
8	24873	80.2	1
8	24894	80.209018536043	0
8	24904	80.3	1
8	24925	80.309018536709	0
8	24935	80.4	1
8	24956	80.409018537375	0
8	24966	80.5	1
8	24987	80.509018538041	0
8	24997	80.6	1
8	25018	80.609018538707	0
8	25028	80.7	1
8	25049	80.709018539373	0
8	25059	80.8	1
8	25080	80.809018540039	0
8	25090	80.9	1
8	25111	80.909018540705	0
8	25121	81	1
8	25142	81.009018541371	0
8	25152	81.1	1
8	25173	81.109018542037	0
8	25183	81.2	1
8	25204	81.209018542703	0
8	25214	81.3	1
8	25235	81.309018543369	0
8	25245	81.4	1
8	25266	81.409018544035	0
8	25276	81.5	1
8	25297	81.509018544701	0
8	25307	81.6	1
8	25328	81.609018545367	0
8	25338	81.7	1
8	25359	81.709018546033	0
8	25369	81.8	1
8	25390	81.809018546699	0
8	25400	81.9	1
8	25421	81.909018547365	0
8	25431	82	1
8	25452	82.009018548031	0
8	25462	82.1	1
8	25483	82.109018548697	0
8	25493	82.2	1
8	25514	82.209018549363	0
8	25524	82.3	1
8	25545	82.309018550029	0
8	25555	82.4	1
8	25576	82.409018550695	0
8	25586	82.5	1
8	25607	82.50901855136	0
8	25617	82.6	1
8	25638	82.609018552026	0
8	25648	82.7	1
8	25669	82.709018552691	0
8	25679	82.8	1
8	25700	82.809018553357	0
8	25710	82.9	1
8	25731	82.909018554023	0
8	25741	83	1
8	25762	83.009018554689	0
8	25772	83.1	1
8	25793	83.109018555355	0
8	25803	83.2	1
8	25824	83.209018556021	0
8	25834	83.3	1
8	25855	83.309018556687	0
8	25865	83.4	1
8	25886	83.409018557353	0
8	25896	83.5	1
8	25917	83.509018558019	0
8	25927	83.6	1
8	25948	83.609018558685	0
8	25958	83.7	1
8	25979	83.709018559351	0
8	25989	83.8	1
8	26010	83.809018560017	0
8	26020	83.9	1
8	26041	83.909018560684	0
8	26051	84	1
8	26072	84.00901856135	0
8	26082	84.1	1
8	26103	84.109018562017	0
8	26113	84.2	1
8	26134	84.209018562683	0
8	26144	84.3	1
8	26165	84.309018563349	0
8	26175	84.4	1
8	26196	84.409018564015	0
8	26206	84.5	1
8	26227	84.509018564681	0
8	26237	84.6	1
8	26258	84.609018565347	0
8	26268	84.7	1
8	26289	84.709018566013	0
8	26299	84.8	1
8	26320	84.809018566679	0
8	26330	84.9	1
8	26351	84.909018567345	0
8	26361	85	1
8	26382	85.009018568011	0
8	26392	85.1	1
8	26413	85.109018568677	0
8	26423	85.2	1
8	26444	85.209018569343	0
8	26454	85.3	1
8	26475	85.309018570009	0
8	26485	85.4	1
8	26506	85.409018570675	0
8	26516	85.5	1
8	26537	85.509018571341	0
8	26547	85.6	1
8	26568	85.609018572007	0
8	26578	85.7	1
8	26599	85.709018572673	0
8	26609	85.8	1
8	26630	85.809018573339	0
8	26640	85.9	1
8	26661	85.909018574005	0
8	26671	86	1
8	26692	86.009018574671	0
8	26702	86.1	1
8	26723	86.109018575337	0
8	26733	86.2	1
8	26754	86.209018576003	0
8	26764	86.3	1
8	26785	86.309018576669	0
8	26795	86.4	1
8	26816	86.409018577335	0
8	26826	86.5	1
8	26847	86.509018578001	0
8	26857	86.6	1
8	26878	86.609018578667	0
8	26888	86.7	1
8	26909	86.709018579333	0
8	26919	86.8	1
8	26940	86.809018579999	0
8	26950	86.9	1
8	26971	86.909018580665	0
8	26981	87	1
8	27002	87.009018581331	0
8	27012	87.1	1
8	27033	87.109018581997	0
8	27043	87.2	1
8	27064	87.209018582663	0
8	27074	87.3	1
8	27095	87.30901858333	0
[...]
65	29440	63.1	0
65	29440	63.2	0
65	29440	63.3	0
65	29440	63.4	0
65	29440	63.5	0
65	29440	63.6	0
65	29440	63.7	0
65	29440	63.8	0
65	29440	63.9	0
65	29440	64	0
65	29440	64.1	0
65	29440	64.2	0
65	29440	64.3	0
65	29440	64.4	0
65	29440	64.5	0
65	29440	64.6	0
65	29440	64.7	0
65	29440	64.8	0
65	29440	64.9	0
65	29440	65	0
65	29440	65.1	0
65	29440	65.2	0
65	29440	65.3	0
65	29440	65.4	0
65	29440	65.5	0
65	29440	65.6	0
65	29440	65.7	0
65	29440	65.8	0
65	29440	65.9	0
65	29440	66	0
65	29440	66.1	0
65	29440	66.2	0
65	29440	66.3	0
65	29440	66.4	0
65	29440	66.5	0
65	29440	66.6	0
65	29440	66.7	0
65	29440	66.8	0
65	29440	66.9	0
65	29440	67	0
65	29440	67.1	0
65	29440	67.2	0
65	29440	67.3	0
65	29440	67.4	0
65	29440	67.5	0
65	29440	67.6	0
65	29440	67.7	0
65	29440	67.8	0
65	29440	67.9	0
65	29440	68	0
65	29440	68.1	0
65	29440	68.2	0
65	29440	68.3	0
65	29440	68.4	0
65	29440	68.5	0
65	29440	68.6	0
65	29440	68.7	0
65	29440	68.8	0
65	29440	68.9	0
65	29440	69	0
65	29440	69.1	0
65	29440	69.2	0
65	29440	69.3	0
65	29440	69.4	0
65	29440	69.5	0
65	29440	69.6	0
65	29440	69.7	0
65	29440	69.8	0
65	29440	69.9	0
65	29440	70	0
65	29440	70.1	0
65	29440	70.2	0
65	29440	70.3	0
65	29440	70.4	0
65	29440	70.5	0
65	29440	70.6	0
65	29440	70.7	0
65	29440	70.8	0
65	29440	70.9	0
65	29440	71	0
65	29440	71.1	0
65	29440	71.2	0
65	29440	71.3	0
65	29440	71.4	0
65	29440	71.5	0
65	29440	71.6	0
65	29440	71.7	0
65	29440	71.8	0
65	29440	71.9	0
65	29440	72	0
65	29440	72.1	0
65	29440	72.2	0
65	29440	72.3	0
65	29440	72.4	0
65	29440	72.5	0
65	29440	72.6	0
65	29440	72.7	0
65	29440	72.8	0
65	29440	72.9	0
65	29440	73	0
65	29440	73.1	0
65	29440	73.2	0
65	29440	73.3	0
65	29440	73.4	0
65	29440	73.5	0
65	29440	73.6	0
65	29440	73.7	0
65	29440	73.8	0
65	29440	73.9	0
65	29440	74	0
65	29440	74.1	0
65	29440	74.2	0
65	29440	74.3	0
65	29440	74.4	0
65	29440	74.5	0
65	29440	74.6	0
65	29440	74.7	0
65	29440	74.8	0
65	29440	74.9	0
65	29440	75	0
65	29440	75.1	0
65	29440	75.2	0
65	29440	75.3	0
65	29440	75.4	0
65	29440	75.5	0
65	29440	75.6	0
65	29440	75.7	0
65	29440	75.8	0
65	29440	75.9	0
65	29440	76	0
65	29440	76.1	0
65	29440	76.2	0
65	29440	76.3	0
65	29440	76.4	0
65	29440	76.5	0
65	29440	76.6	0
65	29440	76.7	0
65	29440	76.8	0
65	29440	76.9	0
65	29440	77	0
65	29440	77.1	0
65	29440	77.2	0
65	29440	77.3	0
65	29440	77.4	0
65	29440	77.5	0
65	29440	77.6	0
65	29440	77.7	0
65	29440	77.8	0
65	29440	77.9	0
65	29440	78	0
65	29440	78.1	0
65	29440	78.2	0
65	29440	78.3	0
65	29440	78.4	0
65	29440	78.5	0
65	29440	78.6	0
65	29440	78.7	0
65	29440	78.8	0
65	29440	78.9	0
65	29440	79	0
65	29440	79.1	0
65	29440	79.2	0
65	29440	79.3	0
65	29440	79.4	0
65	29440	79.5	0
65	29440	79.6	0
65	29440	79.7	0
65	29440	79.8	0
65	29440	79.9	0
65	29440	80	0
65	29440	80.1	0
65	29440	80.2	0
65	29440	80.3	0
65	29440	80.4	0
65	29440	80.5	0
65	29440	80.6	0
65	29440	80.7	0
65	29440	80.8	0
65	29440	80.9	0
65	29440	81	0
65	29440	81.1	0
65	29440	81.2	0
65	29440	81.3	0
65	29440	81.4	0
65	29440	81.5	0
65	29440	81.6	0
65	29440	81.7	0
65	29440	81.8	0
65	29440	81.9	0
65	29440	82	0
65	29440	82.1	0
65	29440	82.2	0
65	29440	82.3	0
65	29440	82.4	0
65	29440	82.5	0
65	29440	82.6	0
65	29440	82.7	0
65	29440	82.8	0
65	29440	82.9	0
65	29440	83	0
65	29440	83.1	0
65	29440	83.2	0
65	29440	83.3	0
65	29440	83.4	0
65	29440	83.5	0
65	29440	83.6	0
65	29440	83.7	0
65	29440	83.8	0
65	29440	83.9	0
65	29440	84	0
65	29440	84.1	0
65	29440	84.2	0
65	29440	84.3	0
65	29440	84.4	0
65	29440	84.5	0
65	29440	84.6	0
65	29440	84.7	0
65	29440	84.8	0
65	29440	84.9	0
65	29440	85	0
65	29440	85.1	0
65	29440	85.2	0
65	29440	85.3	0
65	29440	85.4	0
65	29440	85.5	0
65	29440	85.6	0
65	29440	85.7	0
65	29440	85.8	0
65	29440	85.9	0
65	29440	86	0
65	29440	86.1	0
65	29440	86.2	0
65	29440	86.3	0
65	29440	86.4	0
65	29440	86.5	0
65	29440	86.6	0
65	29440	86.7	0
65	29440	86.8	0
65	29440	86.9	0
65	29440	87	0
65	29440	87.1	0
65	29440	87.2	0
65	29440	87.3	0
65	29440	87.4	0
65	29440	87.5	0
65	29440	87.6	0
65	29440	87.7	0
65	29440	87.8	0
65	29440	87.9	0
65	29440	88	0
65	29440	88.1	0
65	29440	88.2	0
65	29440	88.3	0
65	29440	88.4	0
65	29440	88.5	0
65	29440	88.6	0
65	29440	88.7	0
65	29440	88.8	0
65	29440	88.9	0
65	29440	89	0
65	29440	89.1	0
65	29440	89.2	0
65	29440	89.3	0
65	29440	89.4	0
65	29440	89.5	0
65	29440	89.6	0
65	29440	89.7	0
65	29440	89.8	0
65	29440	89.9	0
65	29440	90	0
65	29440	90.1	0
65	29440	90.2	0
65	29440	90.3	0
65	29440	90.4	0
65	29440	90.5	0
65	29440	90.6	0
65	29440	90.7	0
65	29440	90.8	0
65	29440	90.9	0
65	29440	91	0
65	29440	91.1	0
65	29440	91.2	0
65	29440	91.3	0
65	29440	91.4	0
65	29440	91.5	0
65	29440	91.6	0
65	29440	91.7	0
65	29440	91.8	0
65	29440	91.9	0
65	29440	92	0
65	29440	92.1	0
65	29440	92.2	0
65	29440	92.3	0
65	29440	92.4	0
65	29440	92.5	0
65	29440	92.6	0
65	29440	92.7	0
65	29440	92.8	0
65	29440	92.9	0
65	29440	93	0
65	29440	93.1	0
65	29440	93.2	0
65	29440	93.3	0
65	29440	93.4	0
65	29440	93.5	0
65	29440	93.6	0
65	29440	93.7	0
65	29440	93.8	0
65	29440	93.9	0
65	29440	94	0
65	29440	94.1	0
65	29440	94.2	0
65	29440	94.3	0
65	29440	94.4	0
65	29440	94.5	0
65	29440	94.6	0
65	29440	94.7	0
65	29440	94.8	0
65	29440	94.9	0
65	29440	94.908704316965	0
66	29440	0.1	0
66	29440	0.2	0
66	29440	0.3	0
66	29440	0.4	0
66	29440	0.5	0
66	29440	0.6	0
66	29440	0.7	0
66	29440	0.8	0
66	29440	0.9	0
66	29440	1	0
66	29440	1.1	0
66	29440	1.2	0
66	29440	1.3	0
66	29440	1.4	0
66	29440	1.5	0
66	29440	1.6	0
66	29440	1.7	0
66	29440	1.8	0
66	29440	1.9	0
66	29440	2	0
66	29440	2.1	0
66	29440	2.2	0
66	29440	2.3	0
66	29440	2.4	0
66	29440	2.5	0
66	29440	2.6	0
66	29440	2.7	0
66	29440	2.8	0
66	29440	2.9	0
66	29440	3	0
66	29440	3.1	0
66	29440	3.2	0
66	29440	3.3	0
66	29440	3.4	0
66	29440	3.5	0
66	29440	3.6	0
66	29440	3.7	0
66	29440	3.8	0
66	29440	3.9	0
66	29440	4	0
66	29440	4.1	0
66	29440	4.2	0
66	29440	4.3	0
66	29440	4.4	0
66	29440	4.5	0
66	29440	4.6	0
66	29440	4.7	0
66	29440	4.8	0
66	29440	4.9	0
66	29440	5	0
66	29440	5.1	0
66	29440	5.2	0
66	29440	5.3	0
66	29440	5.4	0
66	29440	5.5	0
66	29440	5.6	0
66	29440	5.7	0
66	29440	5.8	0
66	29440	5.9	0
66	29440	6	0
66	29440	6.1	0
66	29440	6.2	0
66	29440	6.3	0
66	29440	6.4	0
66	29440	6.5	0
66	29440	6.6	0
66	29440	6.7	0
66	29440	6.8	0
66	29440	6.9	0
66	29440	7	0
66	29440	7.1	0
66	29440	7.2	0
66	29440	7.3	0
66	29440	7.4	0
66	29440	7.5	0
66	29440	7.6	0
66	29440	7.7	0
66	29440	7.8	0
66	29440	7.9	0
66	29440	8	0
66	29440	8.1	0
66	29440	8.2	0
66	29440	8.3	0
66	29440	8.4	0
66	29440	8.5	0
66	29440	8.6	0
66	29440	8.7	0
66	29440	8.8	0
66	29440	8.9	0
66	29440	9	0
66	29440	9.1	0
66	29440	9.2	0
66	29440	9.3	0
66	29440	9.4	0
66	29440	9.5	0
66	29440	9.6	0
66	29440	9.7	0
66	29440	9.8	0
66	29440	9.9	0
66	29440	10	0
66	29440	10.1	0
66	29440	10.2	0
66	29440	10.3	0
66	29440	10.4	0
66	29440	10.5	0
66	29440	10.6	0
66	29440	10.7	0
66	29440	10.8	0
66	29440	10.9	0
66	29440	11	0
66	29440	11.1	0
66	29440	11.2	0
66	29440	11.3	0
66	29440	11.4	0
66	29440	11.5	0
66	29440	11.6	0
66	29440	11.7	0
66	29440	11.8	0
66	29440	11.9	0
66	29440	12	0
66	29440	12.1	0
66	29440	12.2	0
66	29440	12.3	0
66	29440	12.4	0
66	29440	12.5	0
66	29440	12.6	0
66	29440	12.7	0
66	29440	12.8	0
66	29440	12.9	0
66	29440	13	0
66	29440	13.1	0
66	29440	13.2	0
66	29440	13.3	0
66	29440	13.4	0
66	29440	13.5	0
66	29440	13.6	0
66	29440	13.7	0
66	29440	13.8	0
66	29440	13.9	0
66	29440	14	0
66	29440	14.1	0
66	29440	14.2	0
66	29440	14.3	0
66	29440	14.4	0
66	29440	14.5	0
66	29440	14.6	0
66	29440	14.7	0
66	29440	14.8	0
66	29440	14.9	0
66	29440	15	0
66	29440	15.1	0
66	29440	15.2	0
66	29440	15.3	0
66	29440	15.4	0
66	29440	15.5	0
66	29440	15.6	0
66	29440	15.7	0
66	29440	15.8	0
66	29440	15.9	0
66	29440	16	0
66	29440	16.1	0
66	29440	16.2	0
66	29440	16.3	0
66	29440	16.4	0
66	29440	16.5	0
66	29440	16.6	0
66	29440	16.7	0
66	29440	16.8	0
66	29440	16.9	0
66	29440	17	0
66	29440	17.1	0
66	29440	17.2	0
66	29440	17.3	0
66	29440	17.4	0
66	29440	17.5	0
66	29440	17.6	0
66	29440	17.7	0
66	29440	17.8	0
66	29440	17.9	0
66	29440	18	0
66	29440	18.1	0
66	29440	18.2	0
66	29440	18.3	0
66	29440	18.4	0
66	29440	18.5	0
66	29440	18.6	0
66	29440	18.7	0
66	29440	18.8	0
66	29440	18.9	0
66	29440	19	0
66	29440	19.1	0
66	29440	19.2	0
66	29440	19.3	0
66	29440	19.4	0
66	29440	19.5	0
66	29440	19.6	0
66	29440	19.7	0
66	29440	19.8	0
66	29440	19.9	0
66	29440	20	0
66	29440	20.1	0
66	29440	20.2	0
66	29440	20.3	0
66	29440	20.4	0
66	29440	20.5	0
66	29440	20.6	0
66	29440	20.7	0
66	29440	20.8	0
66	29440	20.9	0
66	29440	21	0
66	29440	21.1	0
66	29440	21.2	0
66	29440	21.3	0
66	29440	21.4	0
66	29440	21.5	0
66	29440	21.6	0
66	29440	21.7	0
66	29440	21.8	0
66	29440	21.9	0
66	29440	22	0
66	29440	22.1	0
66	29440	22.2	0
66	29440	22.3	0
66	29440	22.4	0
66	29440	22.5	0
66	29440	22.6	0
66	29440	22.7	0
66	29440	22.8	0
66	29440	22.9	0
66	29440	23	0
66	29440	23.1	0
66	29440	23.2	0
66	29440	23.3	0
66	29440	23.4	0
66	29440	23.5	0
66	29440	23.6	0
66	29440	23.7	0
66	29440	23.8	0
66	29440	23.9	0
66	29440	24	0
66	29440	24.1	0
66	29440	24.2	0
66	29440	24.3	0
66	29440	24.4	0
66	29440	24.5	0
66	29440	24.6	0
66	29440	24.7	0
66	29440	24.8	0
66	29440	24.9	0
66	29440	25	0
66	29440	25.1	0
66	29440	25.2	0
66	29440	25.3	0
66	29440	25.4	0
66	29440	25.5	0
66	29440	25.6	0
66	29440	25.7	0
66	29440	25.8	0
66	29440	25.9	0
66	29440	26	0
66	29440	26.1	0
66	29440	26.2	0
66	29440	26.3	0
66	29440	26.4	0
66	29440	26.5	0
66	29440	26.6	0
66	29440	26.7	0
66	29440	26.8	0
66	29440	26.9	0
66	29440	27	0
66	29440	27.1	0
66	29440	27.2	0
66	29440	27.3	0
66	29440	27.4	0
66	29440	27.5	0
66	29440	27.6	0
66	29440	27.7	0
66	29440	27.8	0
66	29440	27.9	0
66	29440	28	0
66	29440	28.1	0
66	29440	28.2	0
66	29440	28.3	0
66	29440	28.4	0
66	29440	28.5	0
66	29440	28.6	0
66	29440	28.7	0
66	29440	28.8	0
66	29440	28.9	0
66	29440	29	0
66	29440	29.1	0
66	29440	29.2	0
66	29440	29.3	0
66	29440	29.4	0
66	29440	29.5	0
66	29440	29.6	0
66	29440	29.7	0
66	29440	29.8	0
66	29440	29.9	0
66	29440	30	0
66	29440	30.1	0
66	29440	30.2	0
66	29440	30.3	0
66	29440	30.4	0
66	29440	30.5	0
66	29440	30.6	0
66	29440	30.7	0
66	29440	30.8	0
66	29440	30.9	0
66	29440	31	0
66	29440	31.1	0
66	29440	31.2	0
66	29440	31.3	0
66	29440	31.4	0
66	29440	31.5	0
66	29440	31.6	0
66	29440	31.7	0
66	29440	31.8	0
66	29440	31.9	0
66	29440	32	0
66	29440	32.1	0
66	29440	32.2	0
66	29440	32.3	0
66	29440	32.4	0
66	29440	32.5	0
66	29440	32.6	0
66	29440	32.7	0
66	29440	32.8	0
66	29440	32.9	0
66	29440	33	0
66	29440	33.1	0
66	29440	33.2	0
66	29440	33.3	0
66	29440	33.4	0
66	29440	33.5	0
66	29440	33.6	0
66	29440	33.7	0
66	29440	33.8	0
66	29440	33.9	0
66	29440	34	0
66	29440	34.1	0
66	29440	34.2	0
66	29440	34.3	0
66	29440	34.4	0
66	29440	34.5	0
66	29440	34.6	0
66	29440	34.7	0
66	29440	34.8	0
66	29440	34.9	0
66	29440	35	0
66	29440	35.1	0
66	29440	35.2	0
66	29440	35.3	0
66	29440	35.4	0
66	29440	35.5	0
66	29440	35.6	0
66	29440	35.7	0
66	29440	35.8	0
66	29440	35.9	0
66	29440	36	0
66	29440	36.1	0
66	29440	36.2	0
66	29440	36.3	0
66	29440	36.4	0
66	29440	36.5	0
66	29440	36.6	0
66	29440	36.7	0
66	29440	36.8	0
66	29440	36.9	0
66	29440	37	0
66	29440	37.1	0
66	29440	37.2	0
66	29440	37.3	0
66	29440	37.4	0
66	29440	37.5	0
66	29440	37.6	0
66	29440	37.7	0
66	29440	37.8	0
66	29440	37.9	0
66	29440	38	0
66	29440	38.1	0
66	29440	38.2	0
66	29440	38.3	0
66	29440	38.4	0
66	29440	38.5	0
66	29440	38.6	0
66	29440	38.7	0
66	29440	38.8	0
66	29440	38.9	0
66	29440	39	0
66	29440	39.1	0
66	29440	39.2	0
66	29440	39.3	0
66	29440	39.4	0
66	29440	39.5	0
66	29440	39.6	0
66	29440	39.7	0
66	29440	39.8	0
66	29440	39.9	0
66	29440	40	0
66	29440	40.1	0
66	29440	40.2	0
66	29440	40.3	0
66	29440	40.4	0
66	29440	40.5	0
66	29440	40.6	0
66	29440	40.7	0
66	29440	40.8	0
66	29440	40.9	0
66	29440	41	0
66	29440	41.1	0
66	29440	41.2	0
66	29440	41.3	0
66	29440	41.4	0
66	29440	41.5	0
66	29440	41.6	0
66	29440	41.7	0
66	29440	41.8	0
66	29440	41.9	0
66	29440	42	0
66	29440	42.1	0
66	29440	42.2	0
66	29440	42.3	0
66	29440	42.4	0
66	29440	42.5	0
66	29440	42.6	0
66	29440	42.7	0
66	29440	42.8	0
66	29440	42.9	0
66	29440	43	0
66	29440	43.1	0
66	29440	43.2	0
66	29440	43.3	0
66	29440	43.4	0
66	29440	43.5	0
66	29440	43.6	0
66	29440	43.7	0
66	29440	43.8	0
66	29440	43.9	0
66	29440	44	0
66	29440	44.1	0
66	29440	44.2	0
66	29440	44.3	0
66	29440	44.4	0
66	29440	44.5	0
66	29440	44.6	0
66	29440	44.7	0
66	29440	44.8	0
66	29440	44.9	0
66	29440	45	0
66	29440	45.1	0
66	29440	45.2	0
66	29440	45.3	0
66	29440	45.4	0
66	29440	45.5	0
66	29440	45.6	0
66	29440	45.7	0
66	29440	45.8	0
66	29440	45.9	0
66	29440	46	0
66	29440	46.1	0
66	29440	46.2	0
66	29440	46.3	0
66	29440	46.4	0
66	29440	46.5	0
66	29440	46.6	0
66	29440	46.7	0
66	29440	46.8	0
66	29440	46.9	0
66	29440	47	0
66	29440	47.1	0
66	29440	47.2	0
66	29440	47.3	0
66	29440	47.4	0
66	29440	47.5	0
66	29440	47.6	0
66	29440	47.7	0
66	29440	47.8	0
66	29440	47.9	0
66	29440	48	0
66	29440	48.1	0
66	29440	48.2	0
66	29440	48.3	0
66	29440	48.4	0
66	29440	48.5	0
66	29440	48.6	0
66	29440	48.7	0
66	29440	48.8	0
66	29440	48.9	0
66	29440	49	0
66	29440	49.1	0
66	29440	49.2	0
66	29440	49.3	0
66	29440	49.4	0
66	29440	49.5	0
66	29440	49.6	0
66	29440	49.7	0
66	29440	49.8	0
66	29440	49.9	0
66	29440	50	0
66	29440	50.1	0
66	29440	50.2	0
66	29440	50.3	0
66	29440	50.4	0
66	29440	50.5	0
66	29440	50.6	0
66	29440	50.7	0
66	29440	50.8	0
66	29440	50.9	0
66	29440	51	0
66	29440	51.1	0
66	29440	51.2	0
66	29440	51.3	0
66	29440	51.4	0
66	29440	51.5	0
66	29440	51.6	0
66	29440	51.7	0
66	29440	51.8	0
66	29440	51.9	0
66	29440	52	0
66	29440	52.1	0
66	29440	52.2	0
66	29440	52.3	0
66	29440	52.4	0
66	29440	52.5	0
66	29440	52.6	0
66	29440	52.7	0
66	29440	52.8	0
66	29440	52.9	0
66	29440	53	0
66	29440	53.1	0
66	29440	53.2	0
66	29440	53.3	0
66	29440	53.4	0
66	29440	53.5	0
66	29440	53.6	0
66	29440	53.7	0
66	29440	53.8	0
66	29440	53.9	0
66	29440	54	0
66	29440	54.1	0
66	29440	54.2	0
66	29440	54.3	0
66	29440	54.4	0
66	29440	54.5	0
66	29440	54.6	0
66	29440	54.7	0
66	29440	54.8	0
66	29440	54.9	0
66	29440	55	0
66	29440	55.1	0
66	29440	55.2	0
66	29440	55.3	0
66	29440	55.4	0
66	29440	55.5	0
66	29440	55.6	0
66	29440	55.7	0
66	29440	55.8	0
66	29440	55.9	0
66	29440	56	0
66	29440	56.1	0
66	29440	56.2	0
66	29440	56.3	0
66	29440	56.4	0
66	29440	56.5	0
66	29440	56.6	0
66	29440	56.7	0
66	29440	56.8	0
66	29440	56.9	0
66	29440	57	0
66	29440	57.1	0
66	29440	57.2	0
66	29440	57.3	0
66	29440	57.4	0
66	29440	57.5	0
66	29440	57.6	0
66	29440	57.7	0
66	29440	57.8	0
66	29440	57.9	0
66	29440	58	0
66	29440	58.1	0
66	29440	58.2	0
66	29440	58.3	0
66	29440	58.4	0
66	29440	58.5	0
66	29440	58.6	0
66	29440	58.7	0
66	29440	58.8	0
66	29440	58.9	0
66	29440	59	0
66	29440	59.1	0
66	29440	59.2	0
66	29440	59.3	0
66	29440	59.4	0
66	29440	59.5	0
66	29440	59.6	0
66	29440	59.7	0
66	29440	59.8	0
66	29440	59.9	0
66	29440	60	0
66	29440	60.1	0
66	29440	60.2	0
66	29440	60.3	0
66	29440	60.4	0
66	29440	60.5	0
66	29440	60.6	0
66	29440	60.7	0
66	29440	60.8	0
66	29440	60.9	0
66	29440	61	0
66	29440	61.1	0
66	29440	61.2	0
66	29440	61.3	0
66	29440	61.4	0
66	29440	61.5	0
66	29440	61.6	0
66	29440	61.7	0
66	29440	61.8	0
66	29440	61.9	0
66	29440	62	0
66	29440	62.1	0
66	29440	62.2	0
66	29440	62.3	0
66	29440	62.4	0
66	29440	62.5	0
66	29440	62.6	0
66	29440	62.7	0
66	29440	62.8	0
66	29440	62.9	0
66	29440	63	0
66	29440	63.1	0
66	29440	63.2	0
66	29440	63.3	0
66	29440	63.4	0
66	29440	63.5	0
66	29440	63.6	0
66	29440	63.7	0
66	29440	63.8	0
66	29440	63.9	0
66	29440	64	0
66	29440	64.1	0
66	29440	64.2	0
66	29440	64.3	0
66	29440	64.4	0
66	29440	64.5	0
66	29440	64.6	0
66	29440	64.7	0
66	29440	64.8	0
66	29440	64.9	0
66	29440	65	0
66	29440	65.1	0
66	29440	65.2	0
66	29440	65.3	0
66	29440	65.4	0
66	29440	65.5	0
66	29440	65.6	0
66	29440	65.7	0
66	29440	65.8	0
66	29440	65.9	0
66	29440	66	0
66	29440	66.1	0
66	29440	66.2	0
66	29440	66.3	0
66	29440	66.4	0
66	29440	66.5	0
66	29440	66.6	0
66	29440	66.7	0
66	29440	66.8	0
66	29440	66.9	0
66	29440	67	0
66	29440	67.1	0
66	29440	67.2	0
66	29440	67.3	0
66	29440	67.4	0
66	29440	67.5	0
66	29440	67.6	0
66	29440	67.7	0
66	29440	67.8	0
66	29440	67.9	0
66	29440	68	0
66	29440	68.1	0
66	29440	68.2	0
66	29440	68.3	0
66	29440	68.4	0
66	29440	68.5	0
66	29440	68.6	0
66	29440	68.7	0
66	29440	68.8	0
66	29440	68.9	0
66	29440	69	0
66	29440	69.1	0
66	29440	69.2	0
66	29440	69.3	0
66	29440	69.4	0
66	29440	69.5	0
66	29440	69.6	0
66	29440	69.7	0
66	29440	69.8	0
66	29440	69.9	0
66	29440	70	0
66	29440	70.1	0
66	29440	70.2	0
66	29440	70.3	0
66	29440	70.4	0
66	29440	70.5	0
66	29440	70.6	0
66	29440	70.7	0
66	29440	70.8	0
66	29440	70.9	0
66	29440	71	0
66	29440	71.1	0
66	29440	71.2	0
66	29440	71.3	0
66	29440	71.4	0
66	29440	71.5	0
66	29440	71.6	0
66	29440	71.7	0
66	29440	71.8	0
66	29440	71.9	0
66	29440	72	0
66	29440	72.1	0
66	29440	72.2	0
66	29440	72.3	0
66	29440	72.4	0
66	29440	72.5	0
66	29440	72.6	0
66	29440	72.7	0
66	29440	72.8	0
66	29440	72.9	0
66	29440	73	0
66	29440	73.1	0
66	29440	73.2	0
66	29440	73.3	0
66	29440	73.4	0
66	29440	73.5	0
66	29440	73.6	0
66	29440	73.7	0
66	29440	73.8	0
66	29440	73.9	0
66	29440	74	0
66	29440	74.1	0
66	29440	74.2	0
66	29440	74.3	0
66	29440	74.4	0
66	29440	74.5	0
66	29440	74.6	0
66	29440	74.7	0
66	29440	74.8	0
66	29440	74.9	0
66	29440	75	0
66	29440	75.1	0
66	29440	75.2	0
66	29440	75.3	0
66	29440	75.4	0
66	29440	75.5	0
66	29440	75.6	0
66	29440	75.7	0
66	29440	75.8	0
66	29440	75.9	0
66	29440	76	0
66	29440	76.1	0
66	29440	76.2	0
66	29440	76.3	0
66	29440	76.4	0
66	29440	76.5	0
66	29440	76.6	0
66	29440	76.7	0
66	29440	76.8	0
66	29440	76.9	0
66	29440	77	0
66	29440	77.1	0
66	29440	77.2	0
66	29440	77.3	0
66	29440	77.4	0
66	29440	77.5	0
66	29440	77.6	0
66	29440	77.7	0
66	29440	77.8	0
66	29440	77.9	0
66	29440	78	0
66	29440	78.1	0
66	29440	78.2	0
66	29440	78.3	0
66	29440	78.4	0
66	29440	78.5	0
66	29440	78.6	0
66	29440	78.7	0
66	29440	78.8	0
66	29440	78.9	0
66	29440	79	0
66	29440	79.1	0
66	29440	79.2	0
66	29440	79.3	0
66	29440	79.4	0
66	29440	79.5	0
66	29440	79.6	0
66	29440	79.7	0
66	29440	79.8	0
66	29440	79.9	0
66	29440	80	0
66	29440	80.1	0
66	29440	80.2	0
66	29440	80.3	0
66	29440	80.4	0
66	29440	80.5	0
66	29440	80.6	0
66	29440	80.7	0
66	29440	80.8	0
66	29440	80.9	0
66	29440	81	0
66	29440	81.1	0
66	29440	81.2	0
66	29440	81.3	0
66	29440	81.4	0
66	29440	81.5	0
66	29440	81.6	0
66	29440	81.7	0
66	29440	81.8	0
66	29440	81.9	0
66	29440	82	0
66	29440	82.1	0
66	29440	82.2	0
66	29440	82.3	0
66	29440	82.4	0
66	29440	82.5	0
66	29440	82.6	0
66	29440	82.7	0
66	29440	82.8	0
66	29440	82.9	0
66	29440	83	0
66	29440	83.1	0
66	29440	83.2	0
66	29440	83.3	0
66	29440	83.4	0
66	29440	83.5	0
66	29440	83.6	0
66	29440	83.7	0
66	29440	83.8	0
66	29440	83.9	0
66	29440	84	0
66	29440	84.1	0
66	29440	84.2	0
66	29440	84.3	0
66	29440	84.4	0
66	29440	84.5	0
66	29440	84.6	0
66	29440	84.7	0
66	29440	84.8	0
66	29440	84.9	0
66	29440	85	0
66	29440	85.1	0
66	29440	85.2	0
66	29440	85.3	0
66	29440	85.4	0
66	29440	85.5	0
66	29440	85.6	0
66	29440	85.7	0
66	29440	85.8	0
66	29440	85.9	0
66	29440	86	0
66	29440	86.1	0
66	29440	86.2	0
66	29440	86.3	0
66	29440	86.4	0
66	29440	86.5	0
66	29440	86.6	0
66	29440	86.7	0
66	29440	86.8	0
66	29440	86.9	0
66	29440	87	0
66	29440	87.1	0
66	29440	87.2	0
66	29440	87.3	0
66	29440	87.4	0
66	29440	87.5	0
66	29440	87.6	0
66	29440	87.7	0
66	29440	87.8	0
66	29440	87.9	0
66	29440	88	0
66	29440	88.1	0
66	29440	88.2	0
66	29440	88.3	0
66	29440	88.4	0
66	29440	88.5	0
66	29440	88.6	0
66	29440	88.7	0
66	29440	88.8	0
66	29440	88.9	0
66	29440	89	0
66	29440	89.1	0
66	29440	89.2	0
66	29440	89.3	0
66	29440	89.4	0
66	29440	89.5	0
66	29440	89.6	0
66	29440	89.7	0
66	29440	89.8	0
66	29440	89.9	0
66	29440	90	0
66	29440	90.1	0
66	29440	90.2	0
66	29440	90.3	0
66	29440	90.4	0
66	29440	90.5	0
66	29440	90.6	0
66	29440	90.7	0
66	29440	90.8	0
66	29440	90.9	0
66	29440	91	0
66	29440	91.1	0
66	29440	91.2	0
66	29440	91.3	0
66	29440	91.4	0
66	29440	91.5	0
66	29440	91.6	0
66	29440	91.7	0
66	29440	91.8	0
66	29440	91.9	0
66	29440	92	0
66	29440	92.1	0
66	29440	92.2	0
66	29440	92.3	0
66	29440	92.4	0
66	29440	92.5	0
66	29440	92.6	0
66	29440	92.7	0
66	29440	92.8	0
66	29440	92.9	0
66	29440	93	0
66	29440	93.1	0
66	29440	93.2	0
66	29440	93.3	0
66	29440	93.4	0
66	29440	93.5	0
66	29440	93.6	0
66	29440	93.7	0
66	29440	93.8	0
66	29440	93.9	0
66	29440	94	0
66	29440	94.1	0
66	29440	94.2	0
66	29440	94.3	0
66	29440	94.4	0
66	29440	94.5	0
66	29440	94.6	0
66	29440	94.7	0
66	29440	94.8	0
66	29440	94.9	0
66	29440	94.908704316965	0

