version 3
run Comunic-2-20240520-09:27:54-13708
attr configname Comunic
attr datetime 20240520-09:27:54
attr datetimef 20240520-092754
attr experiment Comunic
attr inifile omnetpp.ini
attr iterationvars "$pathlosstype=\"TwoRayNewModel\""
attr iterationvarsd pathlosstype=TwoRayNewModel
attr iterationvarsf pathlosstype=TwoRayNewModel-
attr measurement "$pathlosstype=\"TwoRayNewModel\""
attr network Network
attr processid 13708
attr repetition 0
attr replication #0
attr resultdir results
attr runnumber 2
attr seedset 2
itervar pathlosstype "\"TwoRayNewModel\""
config image-path ../../omnetpp-6.0.3/samples/inet4.5/images
config network Network
config **.bitrate 1Mbps
config *.*.wlan[*].mac.dcf.channelAccess.contention.initialChannelBusy false
config **.configurator.config "xmldoc(\"configurator.xml\")"
config *.source.app[0].typename UdpSink
config *.source.app[*].localPort 1000
config *.*.numApps 1
config *.*.app[0].typename UdpBasicApp
config *.*.app[*].destAddresses "\"source\""
config *.*.app[*].destPort 1000
config *.*.app[*].localPort 1000
config *.*.app[*].messageLength 1000Byte
config *.*.app[*].sendInterval 100ms
config *.*.app[*].startTime 0ms
config *.destination.mobility.typename StationaryMobility
config *.destination.mobility.mobilityStateChanged.vector-recording true
config *.destination.mobility.record.vector-recording true
config *.destination.mobility.initialX 100m
config *.destination.mobility.initialY 100m
config *.destination.mobility.initialZ 0.15m
config *.source.mobility.typename LinearMobility
config *.source.mobility.initialX 100m
config *.source.mobility.initialY 100m
config *.source.mobility.initialZ 5m
config *.source.mobility.initialMovementHeading 0deg
config *.source.mobility.initialMovementElevation 0deg
config *.source.mobility.speed 1mps
config *.*.wlan[*].radio.transmitter.power 6dBm
config *.*.wlan[*].radio.centerFrequency 2.400937GHz
config *.*.wlan[*].radio.*.sensitivity -85dBm
config *.*.wlan[*].radio.antenna.typename DipoleAntenna
config *.*.wlan[*].radio.antenna.length 0.05m
config *.*.wlan[*].radio.antenna.maxGain "1.97 dB"
config *.*.wlan[*].radio.antenna.minGain "-90 dB"
config *.*.wlan[*].radio.antenna.lambda 0.125437811m
config *.*.wlan[*].radio.antenna.wireAxis "\"x\""
config *.radioMedium.backgroundNoise.typename IsotropicScalarBackgroundNoise
config *.radioMedium.backgroundNoise.power "-150 dBm"
config *.radioMedium.pathLoss.typename TwoRayNewModel
config *.radioMedium.recordCommunicationLog true
config *.visualizer.*.radioVisualizer.displayRadios true
config *.visualizer.*.radioVisualizer.displayAntennaLobes true
config *.visualizer.*.mediumVisualizer.signalPropagationAnimationSpeed 0.000001
config *.visualizer.*.mediumVisualizer.signalTransmissionAnimationSpeed 0.0001
config *.visualizer.*.mediumVisualizer.displaySignals true
config *.visualizer.*.mediumVisualizer.displaySignalDepartures true
config *.visualizer.*.mediumVisualizer.displaySignalArrivals true
config record-eventlog true
config **.arp.typename GlobalArp
config *.visualizer.osgVisualizer.typename IntegratedOsgVisualizer
config *.visualizer.osgVisualizer.sceneVisualizer.typename SceneOsgEarthVisualizer
config *.visualizer.osgVisualizer.sceneVisualizer.mapFile "\"map.earth\""
config *.visualizer.osgVisualizer.sceneVisualizer.sceneImageSize 10000m
config *.visualizer.osgVisualizer.sceneVisualizer.axisLength 500m
config *.visualizer.osgVisualizer.sceneVisualizer.sceneMinX -200m
config *.visualizer.osgVisualizer.sceneVisualizer.sceneMinY -200m
config *.visualizer.osgVisualizer.sceneVisualizer.sceneMinZ 0m
config *.visualizer.osgVisualizer.sceneVisualizer.sceneMaxX 5000m
config *.visualizer.osgVisualizer.sceneVisualizer.sceneMaxY 5000m
config *.visualizer.osgVisualizer.sceneVisualizer.sceneMaxZ 5000m
config *.visualizer.osgVisualizer.networkNodeVisualizer.displayModuleName true
config **.constraintAreaMinX -5000m
config **.constraintAreaMinY -5000m
config **.constraintAreaMinZ -100m
config **.constraintAreaMaxX 5000m
config **.constraintAreaMaxY 5000m
config **.constraintAreaMaxZ 5000m
config *.coordinateSystem.sceneLongitude -43.270694deg
config *.coordinateSystem.sceneLatitude -22.825083deg
config *.coordinateSystem.sceneHeading 90deg
config *.physicalEnvironment.ground.typename FlatGround
config *.source.osgModel "\"3d/drone.ive.10.scale.0,0,90.rot\""
config **.mobility.initFromDisplayString false

vector 0 Network.source.wlan[0].mac.dcf frameSequenceActive:vector ETV
attr autoWarmupFilter false
attr interpolationmode sample-hold
attr recordingmode vector
attr source warmup(count(frameSequenceStarted)-count(frameSequenceFinished))
attr title "frame sequence active"
vector 1 Network.source.wlan[0].mac.dcf.channelAccess.pendingQueue queueLength:vector ETV
attr autoWarmupFilter false
attr interpolationmode sample-hold
attr recordingmode vector
attr source "warmup(atomic(constant0(packetPushEnded) + count(packetPushStarted) - count(packetPulled) - count(packetRemoved) - count(packetDropped)))"
attr title "queue length"
attr unit pk
vector 2 Network.source.wlan[0].mac.dcf.channelAccess.pendingQueue queueBitLength:vector ETV
attr autoWarmupFilter false
attr interpolationmode sample-hold
attr recordingmode vector
attr source "warmup(atomic(constant0(packetPushEnded) + sum(packetLength(packetPushStarted)) - sum(packetLength(packetPulled)) - sum(packetLength(packetRemoved)) - sum(packetLength(packetDropped))))"
attr title "queue bit length"
attr unit b
vector 3 Network.source.wlan[0].mac.dcf.channelAccess.inProgressFrames queueLength:vector ETV
attr autoWarmupFilter false
attr interpolationmode sample-hold
attr recordingmode vector
attr source "warmup(count(packetEnqueued) - count(packetDequeued))"
attr title "queue length"
vector 4 Network.source.wlan[0].mac.dcf.channelAccess.contention backoffActive:vector ETV
attr autoWarmupFilter false
attr interpolationmode sample-hold
attr recordingmode vector
attr source warmup(count(backoffStarted)-count(backoffStopped))
attr title "backoff active"
vector 5 Network.source.udp passedUpPk:vector(count) ETV
attr interpolationmode none
attr recordingmode vector(count)
attr source packetSentToUpper
attr title "packets passed up, count"
vector 6 Network.source.udp droppedPkWrongPort:vector(count) ETV
attr interpolationmode none
attr recordingmode vector(count)
attr source packetDropReasonIsNoPortFound(packetDropped)
attr title "packets dropped (wrong port), count"
vector 7 Network.source.udp droppedPkBadChecksum:vector(count) ETV
attr interpolationmode none
attr recordingmode vector(count)
attr source packetDropReasonIsIncorrectlyReceived(packetDropped)
attr title "packets dropped (checksum error), count"
vector 8 Network.destination.wlan[0].mac.dcf frameSequenceActive:vector ETV
attr autoWarmupFilter false
attr interpolationmode sample-hold
attr recordingmode vector
attr source warmup(count(frameSequenceStarted)-count(frameSequenceFinished))
attr title "frame sequence active"
vector 9 Network.destination.wlan[0].mac.dcf.channelAccess.pendingQueue queueLength:vector ETV
attr autoWarmupFilter false
attr interpolationmode sample-hold
attr recordingmode vector
attr source "warmup(atomic(constant0(packetPushEnded) + count(packetPushStarted) - count(packetPulled) - count(packetRemoved) - count(packetDropped)))"
attr title "queue length"
attr unit pk
vector 10 Network.destination.wlan[0].mac.dcf.channelAccess.pendingQueue queueBitLength:vector ETV
attr autoWarmupFilter false
attr interpolationmode sample-hold
attr recordingmode vector
attr source "warmup(atomic(constant0(packetPushEnded) + sum(packetLength(packetPushStarted)) - sum(packetLength(packetPulled)) - sum(packetLength(packetRemoved)) - sum(packetLength(packetDropped))))"
attr title "queue bit length"
attr unit b
vector 11 Network.destination.wlan[0].mac.dcf.channelAccess.inProgressFrames queueLength:vector ETV
attr autoWarmupFilter false
attr interpolationmode sample-hold
attr recordingmode vector
attr source "warmup(count(packetEnqueued) - count(packetDequeued))"
attr title "queue length"
vector 12 Network.destination.wlan[0].mac.dcf.channelAccess.contention backoffActive:vector ETV
attr autoWarmupFilter false
attr interpolationmode sample-hold
attr recordingmode vector
attr source warmup(count(backoffStarted)-count(backoffStopped))
attr title "backoff active"
vector 13 Network.destination.udp passedUpPk:vector(count) ETV
attr interpolationmode none
attr recordingmode vector(count)
attr source packetSentToUpper
attr title "packets passed up, count"
vector 14 Network.destination.udp droppedPkWrongPort:vector(count) ETV
attr interpolationmode none
attr recordingmode vector(count)
attr source packetDropReasonIsNoPortFound(packetDropped)
attr title "packets dropped (wrong port), count"
vector 15 Network.destination.udp droppedPkBadChecksum:vector(count) ETV
attr interpolationmode none
attr recordingmode vector(count)
attr source packetDropReasonIsIncorrectlyReceived(packetDropped)
attr title "packets dropped (checksum error), count"
vector 16 Network.source.wlan[0].radio radioMode:vector ETV
attr interpolationmode sample-hold
attr recordingmode vector
attr source radioModeChanged
attr title "Radio mode"
vector 17 Network.source.wlan[0].radio radioChannel:vector ETV
attr interpolationmode sample-hold
attr recordingmode vector
attr source radioChannelChanged
attr title "Radio channel"
vector 18 Network.destination.wlan[0].radio radioMode:vector ETV
attr interpolationmode sample-hold
attr recordingmode vector
attr source radioModeChanged
attr title "Radio mode"
vector 19 Network.destination.wlan[0].radio radioChannel:vector ETV
attr interpolationmode sample-hold
attr recordingmode vector
attr source radioChannelChanged
attr title "Radio channel"
vector 20 Network.source.wlan[0].radio receptionState:vector ETV
attr interpolationmode sample-hold
attr recordingmode vector
attr source receptionStateChanged
attr title "Radio reception state"
vector 21 Network.source.wlan[0].mac.dcf.channelAccess.contention stateChanged:vector ETV
attr enum IDLE,DEFER,IFS_AND_BACKOFF
attr interpolationmode none
attr recordingmode vector
attr title "contention state changed"
attr type enum
vector 22 Network.destination.wlan[0].radio receptionState:vector ETV
attr interpolationmode sample-hold
attr recordingmode vector
attr source receptionStateChanged
attr title "Radio reception state"
vector 23 Network.destination.wlan[0].mac.dcf.channelAccess.contention stateChanged:vector ETV
attr enum IDLE,DEFER,IFS_AND_BACKOFF
attr interpolationmode none
attr recordingmode vector
attr title "contention state changed"
attr type enum
vector 24 Network.source.wlan[0].mac.dcf.recoveryProcedure contentionWindowChanged:vector ETV
attr interpolationmode sample-hold
attr recordingmode vector
attr title "contention window"
vector 25 Network.destination.wlan[0].mac.dcf.recoveryProcedure contentionWindowChanged:vector ETV
attr interpolationmode sample-hold
attr recordingmode vector
attr title "contention window"
vector 26 Network.destination.app[0] packetSent:vector(packetBytes) ETV
attr interpolationmode none
attr recordingmode vector(packetBytes)
attr source packetSent
attr title "packets sent, packetBytes"
vector 27 Network.destination.udp packetSent:vector(packetBytes) ETV
attr interpolationmode none
attr recordingmode vector(packetBytes)
attr source packetSent
attr title "packets sent, packetBytes"
vector 28 Network.destination.wlan[0].mac packetReceivedFromUpper:vector(packetBytes) ETV
attr interpolationmode none
attr recordingmode vector(packetBytes)
attr title "packets received from upper layer, packetBytes"
vector 29 Network.destination.wlan[0].mac.dcf.channelAccess.pendingQueue incomingPacketLengths:vector ETV
attr interpolationmode none
attr recordingmode vector
attr source packetLength(packetPushStarted)
attr title "incoming packet lengths"
attr unit b
vector 30 Network.destination.wlan[0].mac.dcf.channelAccess.contention backoffPeriodGenerated:vector ETV
attr interpolationmode none
attr recordingmode vector
attr title "backoff periods"
vector 31 Network.destination.wlan[0].mac.dcf.channelAccess.pendingQueue queueingTime:vector ETV
attr interpolationmode none
attr recordingmode vector
attr source queueingTime(packetPulled)
attr title "queueing times"
attr unit s
vector 32 Network.destination.wlan[0].mac.dcf.channelAccess.pendingQueue outgoingPacketLengths:vector ETV
attr interpolationmode none
attr recordingmode vector
attr source packetLength(packetPulled)
attr title "outgoing packet lengths"
attr unit b
vector 33 Network.destination.wlan[0].mac.dcf datarateSelected:vector ETV
attr interpolationmode none
attr recordingmode vector
attr title "datarates selected"
vector 34 Network.destination.wlan[0].mac packetSentToLower:vector(packetBytes) ETV
attr interpolationmode none
attr recordingmode vector(packetBytes)
attr title "packets sent to lower layer, packetBytes"
vector 35 Network.destination.wlan[0].radio transmissionState:vector ETV
attr interpolationmode sample-hold
attr recordingmode vector
attr source transmissionStateChanged
attr title "Radio transmission state"
vector 36 Network receptionPower:vector ETV
attr recordingmode vector
attr source receptionMinSignalPower(radioMedium.signalArrivalStarted)
vector 37 Network.destination.wlan[0].mac.dcf packetSentToPeer:vector(packetBytes) ETV
attr interpolationmode none
attr recordingmode vector(packetBytes)
attr title "packets sent, packetBytes"
vector 38 Network.destination.wlan[0].mac.dcf packetSentToPeerUnicast:vector(packetBytes) ETV
attr interpolationmode none
attr recordingmode vector(packetBytes)
attr source ieee80211Unicast(packetSentToPeer)
attr title "packets sent: unicast, packetBytes"
vector 39 Network.destination.wlan[0].mac.dcf packetSentToPeerWithoutRetry:vector(packetBytes) ETV
attr interpolationmode none
attr recordingmode vector(packetBytes)
attr source ieee80211NotRetry(packetSentToPeer)
attr title "packets sent: without retry, packetBytes"
vector 40 Network.destination.wlan[0].mac.rx nav:vector ETV
attr interpolationmode linear
attr recordingmode vector
attr source navChanged
attr title "network allocation vector"
vector 41 Network.source.wlan[0].mac packetReceivedFromLower:vector(packetBytes) ETV
attr interpolationmode none
attr recordingmode vector(packetBytes)
attr title "packets received from lower layer, packetBytes"
vector 42 Network.source.wlan[0].mac.dcf packetReceivedFromPeer:vector(packetBytes) ETV
attr interpolationmode none
attr recordingmode vector(packetBytes)
attr title "packets received, packetBytes"
vector 43 Network.source.wlan[0].mac.dcf packetReceivedFromPeerUnicast:vector(packetBytes) ETV
attr interpolationmode none
attr recordingmode vector(packetBytes)
attr source ieee80211Unicast(packetReceivedFromPeer)
attr title "packets received: unicast, packetBytes"
vector 44 Network.source.wlan[0].mac.dcf packetReceivedFromPeerWithoutRetry:vector(packetBytes) ETV
attr interpolationmode none
attr recordingmode vector(packetBytes)
attr source ieee80211NotRetry(packetReceivedFromPeer)
attr title "packets received: without retry, packetBytes"
vector 45 Network.source.wlan[0].mac.dcf datarateSelected:vector ETV
attr interpolationmode none
attr recordingmode vector
attr title "datarates selected"
vector 46 Network.source.wlan[0].mac packetSentToUpper:vector(packetBytes) ETV
attr interpolationmode none
attr recordingmode vector(packetBytes)
attr title "packets sent to upper layer, packetBytes"
vector 47 Network.source.udp packetReceived:vector(packetBytes) ETV
attr interpolationmode none
attr recordingmode vector(packetBytes)
attr source packetReceived
attr title "packets received, packetBytes"
vector 48 Network.source.app[0] packetReceived:vector(packetBytes) ETV
attr interpolationmode none
attr recordingmode vector(packetBytes)
attr source packetReceived
attr title "packets received, packetBytes"
vector 49 Network.source.app[0] endToEndDelay:vector ETV
attr interpolationmode none
attr recordingmode vector
attr source dataAge(packetReceived)
attr title "end-to-end delay"
attr unit s
vector 50 Network.source.app[0] rcvdPkSeqNo:vector ETV
attr interpolationmode none
attr recordingmode vector
attr source appPkSeqNo(packetReceived)
attr title "received packet sequence number"
vector 51 Network.source.wlan[0].mac packetSentToLower:vector(packetBytes) ETV
attr interpolationmode none
attr recordingmode vector(packetBytes)
attr title "packets sent to lower layer, packetBytes"
vector 52 Network.source.wlan[0].radio transmissionState:vector ETV
attr interpolationmode sample-hold
attr recordingmode vector
attr source transmissionStateChanged
attr title "Radio transmission state"
vector 53 Network.source.wlan[0].mac.dcf packetSentToPeer:vector(packetBytes) ETV
attr interpolationmode none
attr recordingmode vector(packetBytes)
attr title "packets sent, packetBytes"
vector 54 Network.source.wlan[0].mac.dcf packetSentToPeerUnicast:vector(packetBytes) ETV
attr interpolationmode none
attr recordingmode vector(packetBytes)
attr source ieee80211Unicast(packetSentToPeer)
attr title "packets sent: unicast, packetBytes"
vector 55 Network.source.wlan[0].mac.dcf packetSentToPeerWithoutRetry:vector(packetBytes) ETV
attr interpolationmode none
attr recordingmode vector(packetBytes)
attr source ieee80211NotRetry(packetSentToPeer)
attr title "packets sent: without retry, packetBytes"
vector 56 Network.destination.wlan[0].mac packetReceivedFromLower:vector(packetBytes) ETV
attr interpolationmode none
attr recordingmode vector(packetBytes)
attr title "packets received from lower layer, packetBytes"
vector 57 Network.destination.wlan[0].mac.dcf packetReceivedFromPeer:vector(packetBytes) ETV
attr interpolationmode none
attr recordingmode vector(packetBytes)
attr title "packets received, packetBytes"
vector 58 Network.destination.wlan[0].mac.dcf packetReceivedFromPeerUnicast:vector(packetBytes) ETV
attr interpolationmode none
attr recordingmode vector(packetBytes)
attr source ieee80211Unicast(packetReceivedFromPeer)
attr title "packets received: unicast, packetBytes"
vector 59 Network.destination.wlan[0].mac.dcf packetReceivedFromPeerWithoutRetry:vector(packetBytes) ETV
attr interpolationmode none
attr recordingmode vector(packetBytes)
attr source ieee80211NotRetry(packetReceivedFromPeer)
attr title "packets received: without retry, packetBytes"
vector 60 Network.destination.wlan[0].mac.dcf.channelAccess.inProgressFrames queueingTime:vector ETV
attr interpolationmode none
attr recordingmode vector
attr source queueingTime(packetDequeued)
attr title "queueing times"
vector 61 Network.destination.wlan[0].mac.dcf.channelAccess.pendingQueue incomingDataRate:vector ETV
attr interpolationmode linear
attr recordingmode vector
attr source throughput(packetPushStarted)
attr title "incoming datarate"
attr unit bps
vector 62 Network.destination.wlan[0].mac.dcf.channelAccess.pendingQueue outgoingDataRate:vector ETV
attr interpolationmode linear
attr recordingmode vector
attr source throughput(packetPulled)
attr title "outgoing datarate"
attr unit bps
vector 63 Network.source.app[0] throughput:vector ETV
attr recordingmode vector
attr source throughput(packetReceived)
attr title throughput
attr unit bps
vector 64 Network.destination.wlan[0].mac.dcf packetSentToPeerWithRetry:vector(packetBytes) ETV
attr interpolationmode none
attr recordingmode vector(packetBytes)
attr source ieee80211Retry(packetSentToPeer)
attr title "packets sent: with retry, packetBytes"
vector 65 Network.destination.wlan[0].mac.dcf packetDrop:vector(packetBytes) ETV
attr interpolationmode none
attr recordingmode vector(packetBytes)
attr source packetDropped
attr title "packet drops, packetBytes"
vector 66 Network.destination.wlan[0].mac.dcf packetDropRetryLimitReached:vector(packetBytes) ETV
attr interpolationmode none
attr recordingmode vector(packetBytes)
attr source packetDropReasonIsRetryLimitReached(packetDropped)
attr title "packet drops: retry limit reached, packetBytes"
vector 67 Network.destination.wlan[0].mac packetDrop:vector(packetBytes) ETV
attr interpolationmode none
attr recordingmode vector(packetBytes)
attr source packetDropped
attr title "packet drops, packetBytes"
vector 68 Network.destination.wlan[0].mac packetDropRetryLimitReached:vector(packetBytes) ETV
attr interpolationmode none
attr recordingmode vector(packetBytes)
attr source packetDropReasonIsRetryLimitReached(packetDropped)
attr title "packet drops: retry limit reached, packetBytes"
vector 69 Network.destination.wlan[0].mac.dcf.channelAccess.pendingQueue droppedPacketLengthsQueueOverflow:vector ETV
attr interpolationmode none
attr recordingmode vector
attr source packetLength(packetDropReasonIsQueueOverflow(packetDropped))
attr title "dropped packet lengths: queue overflow"
attr unit b
vector 70 Network.destination.wlan[0].mac.dcf packetDropQueueOverflow:vector(packetBytes) ETV
attr interpolationmode none
attr recordingmode vector(packetBytes)
attr source packetDropReasonIsQueueOverflow(packetDropped)
attr title "packet drops: queue overflow, packetBytes"
vector 71 Network.destination.wlan[0].mac packetDropQueueOverflow:vector(packetBytes) ETV
attr interpolationmode none
attr recordingmode vector(packetBytes)
attr source packetDropReasonIsQueueOverflow(packetDropped)
attr title "packet drops: queue overflow, packetBytes"
0	0	0	0
0	0	0	0
1	0	0	0
1	0	0	0
1	0	0	0
1	0	0	0
1	0	0	0
2	0	0	0
2	0	0	0
2	0	0	0
2	0	0	0
2	0	0	0
3	0	0	0
3	0	0	0
4	0	0	0
4	0	0	0
5	0	0	0
5	21	0.008704016178	1
5	52	0.108704016181	2
5	83	0.208704016192	3
5	114	0.308704016209	4
5	145	0.408704016233	5
5	176	0.508704016264	6
5	207	0.608704016301	7
5	238	0.708704016345	8
5	269	0.808704016396	9
5	300	0.908704016454	10
5	331	1.008704016518	11
5	362	1.108704016589	12
5	393	1.208704016666	13
5	424	1.308704016749	14
5	455	1.408704016838	15
5	486	1.508704016934	16
5	517	1.608704017035	17
5	548	1.708704017143	18
5	579	1.808704017256	19
5	610	1.908704017375	20
5	641	2.008704017499	21
5	672	2.108704017629	22
5	703	2.208704017764	23
5	734	2.308704017905	24
5	765	2.40870401805	25
5	796	2.508704018201	26
5	827	2.608704018356	27
5	858	2.708704018516	28
5	889	2.80870401868	29
5	920	2.908704018849	30
5	951	3.008704019023	31
5	982	3.1087040192	32
5	1013	3.208704019382	33
5	1044	3.308704019568	34
5	1075	3.408704019757	35
5	1106	3.508704019951	36
5	1137	3.608704020148	37
5	1168	3.708704020348	38
5	1199	3.808704020552	39
5	1230	3.90870402076	40
5	1261	4.00870402097	41
5	1292	4.108704021184	42
5	1323	4.208704021401	43
5	1354	4.308704021621	44
5	1385	4.408704021843	45
5	1416	4.508704022069	46
5	1447	4.608704022297	47
5	1478	4.708704022528	48
5	1509	4.808704022761	49
5	1540	4.908704022997	50
5	1571	5.008704023235	51
5	1602	5.108704023476	52
5	1633	5.208704023719	53
5	1664	5.308704023964	54
5	1695	5.408704024211	55
5	1726	5.50870402446	56
5	1757	5.608704024711	57
5	1788	5.708704024964	58
5	1819	5.808704025219	59
5	1850	5.908704025476	60
5	1881	6.008704025735	61
5	1912	6.108704025995	62
5	1943	6.208704026257	63
5	1974	6.30870402652	64
5	2005	6.408704026786	65
5	2036	6.508704027052	66
5	2067	6.60870402732	67
5	2098	6.70870402759	68
5	2129	6.808704027861	69
5	2160	6.908704028133	70
5	2191	7.008704028406	71
5	2222	7.108704028681	72
5	2253	7.208704028957	73
5	2284	7.308704029234	74
5	2315	7.408704029513	75
5	2346	7.508704029792	76
5	2377	7.608704030073	77
5	2408	7.708704030355	78
5	2439	7.808704030638	79
5	2470	7.908704030921	80
5	2501	8.008704031206	81
5	2532	8.108704031492	82
5	2563	8.208704031778	83
5	2594	8.308704032066	84
5	2625	8.408704032354	85
5	2656	8.508704032644	86
5	2687	8.608704032934	87
5	2718	8.708704033225	88
5	2749	8.808704033517	89
5	2780	8.908704033809	90
5	2811	9.008704034102	91
5	2842	9.108704034396	92
5	2873	9.208704034691	93
5	2904	9.308704034986	94
5	2935	9.408704035283	95
5	2966	9.508704035579	96
5	2997	9.608704035877	97
5	3028	9.708704036175	98
5	3059	9.808704036473	99
5	3090	9.908704036773	100
5	3121	10.008704037073	101
5	3152	10.108704037373	102
5	3183	10.208704037674	103
5	3214	10.308704037975	104
5	3245	10.408704038277	105
5	3276	10.50870403858	106
5	3307	10.608704038883	107
5	3338	10.708704039187	108
5	3369	10.808704039491	109
5	3400	10.908704039795	110
5	3431	11.0087040401	111
5	3462	11.108704040406	112
5	3493	11.208704040712	113
5	3524	11.308704041018	114
5	3555	11.408704041325	115
5	3586	11.508704041632	116
5	3617	11.608704041939	117
5	3648	11.708704042247	118
5	3679	11.808704042556	119
5	3710	11.908704042864	120
5	3741	12.008704043173	121
5	3772	12.108704043483	122
5	3803	12.208704043793	123
5	3834	12.308704044103	124
5	3865	12.408704044413	125
5	3896	12.508704044724	126
5	3927	12.608704045035	127
5	3958	12.708704045347	128
5	3989	12.808704045658	129
5	4020	12.90870404597	130
5	4051	13.008704046283	131
5	4082	13.108704046596	132
5	4113	13.208704046908	133
5	4144	13.308704047222	134
5	4175	13.408704047535	135
5	4206	13.508704047849	136
5	4237	13.608704048163	137
5	4268	13.708704048477	138
5	4299	13.808704048792	139
5	4330	13.908704049107	140
5	4361	14.008704049422	141
5	4392	14.108704049737	142
5	4423	14.208704050053	143
5	4454	14.308704050368	144
5	4485	14.408704050684	145
5	4516	14.508704051001	146
5	4547	14.608704051317	147
5	4578	14.708704051634	148
5	4609	14.808704051951	149
5	4640	14.908704052268	150
5	4671	15.008704052585	151
5	4702	15.108704052903	152
5	4733	15.20870405322	153
5	4764	15.308704053538	154
5	4795	15.408704053856	155
5	4826	15.508704054174	156
5	4857	15.608704054493	157
5	4888	15.708704054811	158
5	4919	15.80870405513	159
5	4950	15.908704055449	160
5	4981	16.008704055768	161
5	5012	16.108704056088	162
5	5043	16.208704056407	163
5	5074	16.308704056727	164
5	5105	16.408704057047	165
5	5136	16.508704057366	166
5	5167	16.608704057687	167
5	5198	16.708704058007	168
5	5229	16.808704058327	169
5	5260	16.908704058648	170
5	5291	17.008704058968	171
5	5322	17.108704059289	172
5	5353	17.20870405961	173
5	5384	17.308704059931	174
5	5415	17.408704060253	175
5	5446	17.508704060574	176
5	5477	17.608704060896	177
5	5508	17.708704061217	178
5	5539	17.808704061539	179
5	5570	17.908704061861	180
5	5601	18.008704062183	181
5	5632	18.108704062505	182
5	5663	18.208704062827	183
5	5694	18.30870406315	184
5	5725	18.408704063472	185
5	5756	18.508704063795	186
5	5787	18.608704064117	187
5	5818	18.70870406444	188
5	5849	18.808704064763	189
5	5880	18.908704065086	190
5	5911	19.008704065409	191
5	5942	19.108704065733	192
5	5973	19.208704066056	193
5	6004	19.308704066379	194
5	6035	19.408704066703	195
5	6066	19.508704067027	196
5	6097	19.60870406735	197
5	6128	19.708704067674	198
5	6159	19.808704067998	199
5	6190	19.908704068322	200
5	6221	20.008704068646	201
5	6252	20.108704068971	202
5	6283	20.208704069295	203
5	6314	20.308704069619	204
5	6345	20.408704069944	205
5	6376	20.508704070268	206
5	6407	20.608704070593	207
5	6438	20.708704070918	208
5	6469	20.808704071242	209
5	6500	20.908704071567	210
5	6531	21.008704071892	211
5	6562	21.108704072217	212
5	6593	21.208704072543	213
5	6624	21.308704072868	214
5	6655	21.408704073193	215
5	6686	21.508704073518	216
5	6717	21.608704073844	217
5	6748	21.708704074169	218
5	6779	21.808704074495	219
5	6810	21.90870407482	220
5	6841	22.008704075146	221
5	6872	22.108704075472	222
5	6903	22.208704075798	223
5	6934	22.308704076124	224
5	6965	22.40870407645	225
5	6996	22.508704076776	226
5	7027	22.608704077102	227
5	7058	22.708704077428	228
5	7089	22.808704077754	229
5	7120	22.908704078081	230
5	7151	23.008704078407	231
5	7182	23.108704078733	232
5	7213	23.20870407906	233
5	7244	23.308704079386	234
6	0	0	0
7	0	0	0
8	0	0	0
8	0	0	0
8	11	0	1
8	32	0.009018032356	0
8	42	0.1	1
8	63	0.109018032363	0
8	73	0.2	1
8	94	0.209018032385	0
8	104	0.3	1
8	125	0.30901803242	0
8	135	0.4	1
8	156	0.409018032468	0
8	166	0.5	1
8	187	0.509018032531	0
8	197	0.6	1
8	218	0.609018032606	0
8	228	0.7	1
8	249	0.709018032695	0
8	259	0.8	1
8	280	0.809018032797	0
8	290	0.9	1
8	311	0.909018032913	0
8	321	1	1
8	342	1.009018033042	0
8	352	1.1	1
8	373	1.109018033184	0
8	383	1.2	1
8	404	1.209018033339	0
8	414	1.3	1
8	435	1.309018033505	0
8	445	1.4	1
8	466	1.409018033684	0
8	476	1.5	1
8	497	1.509018033877	0
8	507	1.6	1
8	528	1.60901803408	0
8	538	1.7	1
8	559	1.709018034296	0
8	569	1.8	1
8	590	1.809018034522	0
8	600	1.9	1
8	621	1.909018034761	0
8	631	2	1
8	652	2.00901803501	0
8	662	2.1	1
8	683	2.10901803527	0
8	693	2.2	1
8	714	2.20901803554	0
8	724	2.3	1
8	745	2.309018035822	0
8	755	2.4	1
8	776	2.409018036113	0
8	786	2.5	1
8	807	2.509018036415	0
8	817	2.6	1
8	838	2.609018036726	0
8	848	2.7	1
8	869	2.709018037046	0
8	879	2.8	1
8	900	2.809018037375	0
8	910	2.9	1
8	931	2.909018037713	0
8	941	3	1
8	962	3.009018038061	0
8	972	3.1	1
8	993	3.109018038416	0
8	1003	3.2	1
8	1024	3.20901803878	0
8	1034	3.3	1
8	1055	3.309018039152	0
8	1065	3.4	1
8	1086	3.409018039531	0
8	1096	3.5	1
8	1117	3.509018039919	0
8	1127	3.6	1
8	1148	3.609018040313	0
8	1158	3.7	1
8	1179	3.709018040714	0
8	1189	3.8	1
8	1210	3.809018041122	0
8	1220	3.9	1
8	1241	3.909018041538	0
8	1251	4	1
8	1272	4.009018041959	0
8	1282	4.1	1
8	1303	4.109018042387	0
8	1313	4.2	1
8	1334	4.209018042821	0
8	1344	4.3	1
8	1365	4.309018043261	0
8	1375	4.4	1
8	1396	4.409018043706	0
8	1406	4.5	1
8	1427	4.509018044158	0
8	1437	4.6	1
8	1458	4.609018044614	0
8	1468	4.7	1
8	1489	4.709018045076	0
8	1499	4.8	1
8	1520	4.809018045543	0
8	1530	4.9	1
8	1551	4.909018046015	0
8	1561	5	1
8	1582	5.009018046491	0
8	1592	5.1	1
8	1613	5.109018046973	0
8	1623	5.2	1
8	1644	5.209018047459	0
8	1654	5.3	1
8	1675	5.309018047949	0
8	1685	5.4	1
8	1706	5.409018048444	0
8	1716	5.5	1
8	1737	5.509018048942	0
8	1747	5.6	1
8	1768	5.609018049444	0
8	1778	5.7	1
8	1799	5.709018049951	0
8	1809	5.8	1
8	1830	5.809018050461	0
8	1840	5.9	1
8	1861	5.909018050975	0
8	1871	6	1
8	1892	6.009018051492	0
8	1902	6.1	1
8	1923	6.109018052013	0
8	1933	6.2	1
8	1954	6.209018052537	0
8	1964	6.3	1
8	1985	6.309018053063	0
8	1995	6.4	1
8	2016	6.409018053595	0
8	2026	6.5	1
8	2047	6.509018054127	0
8	2057	6.6	1
8	2078	6.609018054664	0
8	2088	6.7	1
8	2109	6.709018055203	0
8	2119	6.8	1
8	2140	6.809018055745	0
8	2150	6.9	1
8	2171	6.90901805629	0
8	2181	7	1
8	2202	7.009018056836	0
8	2212	7.1	1
8	2233	7.109018057386	0
8	2243	7.2	1
8	2264	7.209018057938	0
8	2274	7.3	1
8	2295	7.309018058493	0
8	2305	7.4	1
8	2326	7.40901805905	0
8	2336	7.5	1
8	2357	7.509018059609	0
8	2367	7.6	1
8	2388	7.609018060171	0
8	2398	7.7	1
8	2419	7.709018060734	0
8	2429	7.8	1
8	2450	7.8090180613	0
8	2460	7.9	1
8	2481	7.909018061867	0
8	2491	8	1
8	2512	8.009018062437	0
8	2522	8.1	1
8	2543	8.109018063009	0
8	2553	8.2	1
8	2574	8.209018063581	0
8	2584	8.3	1
8	2605	8.309018064157	0
8	2615	8.4	1
8	2636	8.409018064734	0
8	2646	8.5	1
8	2667	8.509018065313	0
8	2677	8.6	1
8	2698	8.609018065893	0
8	2708	8.7	1
8	2729	8.709018066475	0
8	2739	8.8	1
8	2760	8.809018067059	0
8	2770	8.9	1
8	2791	8.909018067644	0
8	2801	9	1
8	2822	9.00901806823	0
8	2832	9.1	1
8	2853	9.109018068818	0
8	2863	9.2	1
8	2884	9.209018069408	0
8	2894	9.3	1
8	2915	9.309018069998	0
8	2925	9.4	1
8	2946	9.409018070591	0
8	2956	9.5	1
8	2977	9.509018071184	0
8	2987	9.6	1
8	3008	9.60901807178	0
8	3018	9.7	1
8	3039	9.709018072376	0
8	3049	9.8	1
8	3070	9.809018072972	0
8	3080	9.9	1
8	3101	9.909018073572	0
8	3111	10	1
8	3132	10.009018074172	0
8	3142	10.1	1
8	3163	10.109018074772	0
8	3173	10.2	1
8	3194	10.209018075374	0
8	3204	10.3	1
8	3225	10.309018075977	0
8	3235	10.4	1
8	3256	10.409018076581	0
8	3266	10.5	1
8	3287	10.509018077186	0
8	3297	10.6	1
8	3318	10.609018077793	0
8	3328	10.7	1
8	3349	10.7090180784	0
8	3359	10.8	1
8	3380	10.809018079008	0
8	3390	10.9	1
8	3411	10.909018079617	0
8	3421	11	1
8	3442	11.009018080227	0
8	3452	11.1	1
8	3473	11.109018080838	0
8	3483	11.2	1
8	3504	11.20901808145	0
8	3514	11.3	1
8	3535	11.309018082063	0
8	3545	11.4	1
8	3566	11.409018082676	0
8	3576	11.5	1
8	3597	11.509018083291	0
8	3607	11.6	1
8	3628	11.609018083905	0
8	3638	11.7	1
8	3659	11.709018084521	0
8	3669	11.8	1
8	3690	11.809018085138	0
8	3700	11.9	1
8	3721	11.909018085755	0
8	3731	12	1
8	3752	12.009018086373	0
8	3762	12.1	1
8	3783	12.109018086993	0
8	3793	12.2	1
8	3814	12.209018087613	0
8	3824	12.3	1
8	3845	12.309018088233	0
8	3855	12.4	1
8	3876	12.409018088853	0
8	3886	12.5	1
8	3907	12.509018089475	0
8	3917	12.6	1
8	3938	12.609018090097	0
8	3948	12.7	1
8	3969	12.709018090721	0
8	3979	12.8	1
8	4000	12.809018091344	0
8	4010	12.9	1
8	4031	12.909018091968	0
8	4041	13	1
8	4062	13.009018092593	0
8	4072	13.1	1
8	4093	13.109018093219	0
8	4103	13.2	1
8	4124	13.209018093844	0
8	4134	13.3	1
8	4155	13.309018094471	0
8	4165	13.4	1
8	4186	13.409018095098	0
8	4196	13.5	1
8	4217	13.509018095725	0
8	4227	13.6	1
8	4248	13.609018096353	0
8	4258	13.7	1
8	4279	13.709018096982	0
8	4289	13.8	1
8	4310	13.809018097611	0
8	4320	13.9	1
8	4341	13.909018098241	0
8	4351	14	1
8	4372	14.009018098871	0
8	4382	14.1	1
8	4403	14.109018099502	0
8	4413	14.2	1
8	4434	14.209018100133	0
8	4444	14.3	1
8	4465	14.309018100764	0
8	4475	14.4	1
8	4496	14.409018101396	0
8	4506	14.5	1
8	4527	14.509018102029	0
8	4537	14.6	1
8	4558	14.609018102662	0
8	4568	14.7	1
8	4589	14.709018103295	0
8	4599	14.8	1
8	4620	14.809018103929	0
8	4630	14.9	1
8	4651	14.909018104563	0
8	4661	15	1
8	4682	15.009018105198	0
8	4692	15.1	1
8	4713	15.109018105833	0
8	4723	15.2	1
8	4744	15.209018106468	0
8	4754	15.3	1
8	4775	15.309018107104	0
8	4785	15.4	1
8	4806	15.40901810774	0
8	4816	15.5	1
8	4837	15.509018108376	0
8	4847	15.6	1
8	4868	15.609018109014	0
8	4878	15.7	1
8	4899	15.70901810965	0
8	4909	15.8	1
8	4930	15.809018110288	0
8	4940	15.9	1
8	4961	15.909018110926	0
8	4971	16	1
8	4992	16.009018111564	0
8	5002	16.1	1
8	5023	16.109018112203	0
8	5033	16.2	1
8	5054	16.209018112842	0
8	5064	16.3	1
8	5085	16.309018113482	0
8	5095	16.4	1
8	5116	16.409018114121	0
8	5126	16.5	1
8	5147	16.50901811476	0
8	5157	16.6	1
8	5178	16.609018115401	0
8	5188	16.7	1
8	5209	16.709018116042	0
8	5219	16.8	1
8	5240	16.809018116682	0
8	5250	16.9	1
8	5271	16.909018117324	0
8	5281	17	1
8	5302	17.009018117964	0
8	5312	17.1	1
8	5333	17.109018118606	0
8	5343	17.2	1
8	5364	17.209018119248	0
8	5374	17.3	1
8	5395	17.30901811989	0
8	5405	17.4	1
8	5426	17.409018120534	0
8	5436	17.5	1
8	5457	17.509018121176	0
8	5467	17.6	1
8	5488	17.60901812182	0
8	5498	17.7	1
8	5519	17.709018122462	0
8	5529	17.8	1
8	5550	17.809018123106	0
8	5560	17.9	1
8	5581	17.90901812375	0
8	5591	18	1
8	5612	18.009018124394	0
8	5622	18.1	1
8	5643	18.109018125038	0
8	5653	18.2	1
8	5674	18.209018125682	0
8	5684	18.3	1
8	5705	18.309018126328	0
8	5715	18.4	1
8	5736	18.409018126972	0
8	5746	18.5	1
8	5767	18.509018127618	0
8	5777	18.6	1
8	5798	18.609018128263	0
8	5808	18.7	1
8	5829	18.709018128908	0
8	5839	18.8	1
8	5860	18.809018129554	0
8	5870	18.9	1
8	5891	18.9090181302	0
8	5901	19	1
8	5922	19.009018130847	0
8	5932	19.1	1
8	5953	19.109018131494	0
8	5963	19.2	1
8	5984	19.20901813214	0
8	5994	19.3	1
8	6015	19.309018132787	0
8	6025	19.4	1
8	6046	19.409018133434	0
8	6056	19.5	1
8	6077	19.509018134082	0
8	6087	19.6	1
8	6108	19.609018134729	0
8	6118	19.7	1
8	6139	19.709018135376	0
8	6149	19.8	1
8	6170	19.809018136024	0
8	6180	19.9	1
8	6201	19.909018136672	0
8	6211	20	1
8	6232	20.009018137321	0
8	6242	20.1	1
8	6263	20.10901813797	0
8	6273	20.2	1
8	6294	20.209018138618	0
8	6304	20.3	1
8	6325	20.309018139267	0
8	6335	20.4	1
8	6356	20.409018139916	0
8	6366	20.5	1
8	6387	20.509018140565	0
8	6397	20.6	1
8	6418	20.609018141214	0
8	6428	20.7	1
8	6449	20.709018141864	0
8	6459	20.8	1
8	6480	20.809018142513	0
8	6490	20.9	1
8	6511	20.909018143163	0
8	6521	21	1
8	6542	21.009018143813	0
8	6552	21.1	1
8	6573	21.109018144463	0
8	6583	21.2	1
8	6604	21.209018145114	0
8	6614	21.3	1
8	6635	21.309018145764	0
8	6645	21.4	1
8	6666	21.409018146414	0
8	6676	21.5	1
8	6697	21.509018147065	0
8	6707	21.6	1
8	6728	21.609018147716	0
8	6738	21.7	1
8	6759	21.709018148367	0
8	6769	21.8	1
8	6790	21.809018149018	0
8	6800	21.9	1
8	6821	21.909018149669	0
8	6831	22	1
8	6852	22.009018150321	0
8	6862	22.1	1
8	6883	22.109018150972	0
8	6893	22.2	1
8	6914	22.209018151624	0
8	6924	22.3	1
8	6945	22.309018152276	0
8	6955	22.4	1
8	6976	22.409018152928	0
8	6986	22.5	1
8	7007	22.50901815358	0
8	7017	22.6	1
8	7038	22.609018154232	0
8	7048	22.7	1
8	7069	22.709018154884	0
8	7079	22.8	1
8	7100	22.809018155537	0
8	7110	22.9	1
8	7131	22.90901815619	0
8	7141	23	1
8	7162	23.009018156842	0
8	7172	23.1	1
8	7193	23.109018157495	0
8	7203	23.2	1
8	7224	23.209018158148	0
8	7234	23.3	1
8	7255	23.309018158801	0
8	7265	23.4	1
8	7272	23.408926	0
8	7275	23.409768	1
8	7282	23.418694	0
8	7286	23.421036	1
8	7294	23.429962	0
8	7297	23.432324	1
8	7305	23.44125	0
8	7308	23.445672	1
8	7316	23.454598	0
8	7320	23.47068	1
8	7327	23.479606	0
8	7330	23.482688	1
8	7338	23.491614	0
8	7347	23.5	1
8	7355	23.508926	0
8	7358	23.509668	1
8	7365	23.518594	0
8	7369	23.520736	1
8	7377	23.529662	0
8	7380	23.531764	1
8	7388	23.54069	0
8	7391	23.548732	1
8	7399	23.557658	0
8	7403	23.57042	1
8	7410	23.579346	0
8	7414	23.595268	1
8	7427	23.604194	0
8	7430	23.604876	1
8	7437	23.613802	0
8	7441	23.621544	1
8	7449	23.63047	0
8	7453	23.650192	1
8	7460	23.659118	0
8	7464	23.67352	1
8	7471	23.682446	0
8	7474	23.682928	1
8	7481	23.691854	0
8	7492	23.710716	1
8	7499	23.719642	0
8	7503	23.729684	1
8	7510	23.73861	0
8	7514	23.754312	1
8	7521	23.763238	0
8	7524	23.77204	1
8	7532	23.780966	0
8	7535	23.785028	1
8	7543	23.793954	0
8	7553	23.808936	1
8	7560	23.817862	0
8	7564	23.833964	1
8	7571	23.84289	0
8	7574	23.852352	1
8	7582	23.861278	0
8	7585	23.86922	1
8	7593	23.878146	0
8	7596	23.882588	1
8	7604	23.891514	0
8	7614	23.902316	1
8	7621	23.911242	0
8	7624	23.918104	1
8	7632	23.92703	0
8	7635	23.930072	1
8	7643	23.938998	0
8	7646	23.9468	1
8	7654	23.955726	0
8	7658	23.974528	1
8	7665	23.983454	0
8	7669	23.995236	1
8	7682	24.004162	0
8	7686	24.017064	1
8	7693	24.02599	0
8	7697	24.036952	1
8	7704	24.045878	0
8	7708	24.05976	1
8	7715	24.068686	0
8	7718	24.072508	1
8	7726	24.081434	0
8	7736	24.101896	1
8	7743	24.110822	0
8	7746	24.116524	1
8	7754	24.12545	0
8	7758	24.143092	1
8	7765	24.152018	0
8	7768	24.15728	1
8	7776	24.166206	0
8	7780	24.184708	1
8	7787	24.193634	0
8	7797	24.207096	1
8	7804	24.216022	0
8	7808	24.232884	1
8	7815	24.24181	0
8	7818	24.250652	1
8	7826	24.259578	0
8	7830	24.27354	1
8	7837	24.282466	0
8	7840	24.285628	1
8	7848	24.294554	0
8	7858	24.308436	1
8	7865	24.317362	0
8	7869	24.335984	1
8	7876	24.34491	0
8	7880	24.364572	1
8	7887	24.373498	0
8	7891	24.38354	1
8	7898	24.392466	0
8	7908	24.409428	1
8	7915	24.418354	0
8	7918	24.427096	1
8	7926	24.436022	0
8	7929	24.439964	1
8	7937	24.44889	0
8	7941	24.461552	1
8	7948	24.470478	0
8	7951	24.4753	1
8	7959	24.484226	0
8	7963	24.496908	1
8	7976	24.505834	0
8	7980	24.517296	1
8	7987	24.526222	0
8	7991	24.540764	1
8	7998	24.54969	0
8	8002	24.561152	1
8	8009	24.570078	0
8	8013	24.58142	1
8	8020	24.590346	0
8	8023	24.596628	1
8	8037	24.605554	0
8	8041	24.616956	1
8	8048	24.625882	0
8	8052	24.638344	1
8	8059	24.64727	0
8	8063	24.660132	1
8	8070	24.669058	0
8	8073	24.67302	1
8	8081	24.681946	0
8	8084	24.688488	1
8	8092	24.697414	0
8	8102	24.707536	1
8	8109	24.716462	0
8	8112	24.724204	1
8	8120	24.73313	0
8	8123	24.740732	1
8	8131	24.749658	0
8	8134	24.75474	1
8	8142	24.763666	0
8	8146	24.782788	1
8	8153	24.791714	0
8	8163	24.809596	1
8	8170	24.818522	0
8	8174	24.832444	1
8	8181	24.84137	0
8	8184	24.848132	1
8	8192	24.857058	0
8	8196	24.8735	1
8	8203	24.882426	0
8	8206	24.885448	1
8	8214	24.894374	0
8	8217	24.897836	1
8	8231	24.906762	0
8	8235	24.916964	1
8	8242	24.92589	0
8	8245	24.927212	1
8	8253	24.936138	0
8	8257	24.95338	1
8	8264	24.962306	0
8	8268	24.977008	1
8	8275	24.985934	0
8	8285	25.002476	1
8	8292	25.011402	0
8	8296	25.021824	1
8	8303	25.03075	0
8	8307	25.046212	1
8	8314	25.055138	0
8	8318	25.06694	1
8	8325	25.075866	0
8	8329	25.092108	1
8	8342	25.101034	0
8	8345	25.106496	1
8	8353	25.115422	0
8	8356	25.124904	1
8	8364	25.13383	0
8	8367	25.135052	1
8	8375	25.143978	0
8	8379	25.15716	1
8	8386	25.166086	0
8	8390	25.178368	1
8	8397	25.187294	0
8	8401	25.197756	1
8	8414	25.206682	0
8	8417	25.216404	1
8	8425	25.22533	0
8	8429	25.242872	1
8	8436	25.251798	0
8	8440	25.26526	1
8	8447	25.274186	0
8	8451	25.288608	1
8	8458	25.297534	0
8	8461	25.299236	1
8	8475	25.308162	0
8	8478	25.315964	1
8	8486	25.32489	0
8	8489	25.332232	1
8	8497	25.341158	0
8	8500	25.34158	1
8	8507	25.350506	0
8	8511	25.352028	1
8	8519	25.360954	0
8	8523	25.378716	1
8	8530	25.387642	0
8	8533	25.390664	1
8	8541	25.39959	0
8	8550	25.404812	1
8	8558	25.413738	0
8	8561	25.41398	1
8	8568	25.422906	0
8	8573	25.442888	1
8	8580	25.451814	0
8	8584	25.466216	1
8	8591	25.475142	0
8	8595	25.485684	1
8	8602	25.49461	0
8	8605	25.497032	1
8	8619	25.505958	0
8	8622	25.50846	1
8	8630	25.517386	0
8	8634	25.536968	1
8	8641	25.545894	0
8	8645	25.563216	1
8	8652	25.572142	0
8	8656	25.591024	1
8	8663	25.59995	0
8	8672	25.605192	1
8	8680	25.614118	0
8	8684	25.62544	1
8	8691	25.634366	0
8	8694	25.635968	1
8	8702	25.644894	0
8	8705	25.648396	1
8	8713	25.657322	0
8	8716	25.662304	1
8	8724	25.67123	0
8	8728	25.691612	1
8	8741	25.700538	0
8	8745	25.71798	1
8	8752	25.726906	0
8	8755	25.733788	1
8	8763	25.742714	0
8	8767	25.762096	1
8	8774	25.771022	0
8	8778	25.786164	1
8	8785	25.79509	0
8	8795	25.810552	1
8	8802	25.819478	0
8	8806	25.83362	1
8	8813	25.842546	0
8	8817	25.857208	1
8	8824	25.866134	0
8	8828	25.880956	1
8	8835	25.889882	0
8	8838	25.894964	1
8	8852	25.90389	0
8	8855	25.911932	1
8	8863	25.920858	0
8	8867	25.93556	1
8	8874	25.944486	0
8	8878	25.960288	1
8	8885	25.969214	0
8	8888	25.976136	1
8	8896	25.985062	0
8	8900	25.997264	1
8	8913	26.00619	0
8	8916	26.008332	1
8	8924	26.017258	0
8	8927	26.02086	1
8	8935	26.029786	0
8	8939	26.044168	1
8	8946	26.053094	0
8	8949	26.059076	1
8	8957	26.068002	0
8	8961	26.086704	1
8	8968	26.09563	0
8	8978	26.113052	1
8	8985	26.121978	0
8	8989	26.14012	1
8	8996	26.149046	0
8	9000	26.164788	1
8	9007	26.173714	0
8	9010	26.174316	1
8	9017	26.183242	0
8	9021	26.191004	1
8	9029	26.19993	0
8	9039	26.212972	1
8	9046	26.221898	0
8	9050	26.23712	1
8	9057	26.246046	0
8	9060	26.248068	1
8	9068	26.256994	0
8	9072	26.274296	1
8	9079	26.283222	0
8	9083	26.294424	1
8	9096	26.30335	0
8	9100	26.318212	1
8	9107	26.327138	0
8	9111	26.34238	1
8	9118	26.351306	0
8	9121	26.360308	1
8	9129	26.369234	0
8	9133	26.380156	1
8	9140	26.389082	0
8	9150	26.405344	1
8	9157	26.41427	0
8	9160	26.415412	1
8	9168	26.424338	0
8	9172	26.44488	1
8	9179	26.453806	0
8	9182	26.457028	1
8	9190	26.465954	0
8	9194	26.483296	1
8	9201	26.492222	0
8	9211	26.510904	1
8	9218	26.51983	0
8	9221	26.524452	1
8	9229	26.533378	0
8	9232	26.53686	1
8	9240	26.545786	0
8	9243	26.551908	1
8	9251	26.560834	0
8	9255	26.574676	1
8	9262	26.583602	0
8	9266	26.596484	1
8	9279	26.60541	0
8	9283	26.621052	1
8	9290	26.629978	0
8	9294	26.64482	1
8	9301	26.653746	0
8	9304	26.659128	1
8	9312	26.668054	0
8	9315	26.674776	1
8	9323	26.683702	0
8	9326	26.690624	1
8	9334	26.69955	0
8	9343	26.702572	1
8	9351	26.711498	0
8	9355	26.7259	1
8	9362	26.734826	0
8	9365	26.737208	1
8	9373	26.746134	0
8	9377	26.761356	1
8	9384	26.770282	0
8	9388	26.788884	1
8	9395	26.79781	0
8	9405	26.817472	1
8	9412	26.826398	0
8	9416	26.84594	1
8	9423	26.854866	0
8	9426	26.858188	1
8	9434	26.867114	0
8	9438	26.879016	1
8	9445	26.887942	0
8	9448	26.890284	1
8	9456	26.89921	0
8	9465	26.907212	1
8	9473	26.916138	0
8	9476	26.91834	1
8	9484	26.927266	0
8	9487	26.932288	1
8	9495	26.941214	0
8	9499	26.959716	1
8	9506	26.968642	0
8	9509	26.976564	1
8	9517	26.98549	0
8	9527	27.001172	1
8	9534	27.010098	0
8	9537	27.0108	1
8	9544	27.019726	0
8	9548	27.027328	1
8	9556	27.036254	0
8	9559	27.044896	1
8	9567	27.053822	0
8	9570	27.062644	1
8	9578	27.07157	0
8	9581	27.076632	1
8	9589	27.085558	0
8	9599	27.10072	1
8	9606	27.109646	0
8	9609	27.114468	1
8	9617	27.123394	0
8	9620	27.127736	1
8	9628	27.136662	0
8	9631	27.144344	1
8	9639	27.15327	0
8	9642	27.154452	1
8	9650	27.163378	0
8	9653	27.168	1
8	9661	27.176926	0
8	9665	27.191328	1
8	9678	27.200254	0
8	9682	27.211956	1
8	9689	27.220882	0
8	9692	27.230004	1
8	9700	27.23893	0
8	9703	27.246632	1
8	9711	27.255558	0
8	9715	27.2731	1
8	9722	27.282026	0
8	9726	27.295308	1
8	9739	27.304234	0
8	9742	27.305076	1
8	9749	27.314002	0
8	9754	27.330004	1
8	9761	27.33893	0
8	9764	27.341032	1
8	9772	27.349958	0
8	9775	27.3591	1
8	9783	27.368026	0
8	9787	27.383088	1
8	9794	27.392014	0
8	9797	27.394876	1
8	9811	27.403802	0
8	9814	27.405004	1
8	9822	27.41393	0
8	9826	27.432352	1
8	9833	27.441278	0
8	9836	27.44898	1
8	9844	27.457906	0
8	9847	27.463028	1
8	9855	27.471954	0
8	9859	27.491736	1
8	9872	27.500662	0
8	9875	27.500904	1
8	9882	27.50983	0
8	9886	27.518292	1
8	9894	27.527218	0
8	9897	27.53418	1
8	9905	27.543106	0
8	9909	27.555068	1
8	9916	27.563994	0
8	9919	27.566896	1
8	9927	27.575822	0
8	9930	27.582244	1
8	9938	27.59117	0
8	9941	27.593932	1
8	9955	27.602858	0
8	9958	27.60894	1
8	9966	27.617866	0
8	9969	27.620248	1
8	9977	27.629174	0
8	9981	27.647696	1
8	9988	27.656622	0
8	9991	27.661044	1
8	9999	27.66997	0
8	10003	27.686352	1
8	10010	27.695278	0
8	10020	27.71396	1
8	10027	27.722886	0
8	10030	27.726328	1
8	10038	27.735254	0
8	10042	27.748336	1
8	10049	27.757262	0
8	10052	27.764444	1
8	10060	27.77337	0
8	10064	27.784952	1
8	10071	27.793878	0
8	10081	27.80584	1
8	10088	27.814766	0
8	10092	27.824688	1
8	10099	27.833614	0
8	10102	27.836536	1
8	10110	27.845462	0
8	10114	27.862904	1
8	10121	27.87183	0
8	10125	27.885312	1
8	10132	27.894238	0
8	10142	27.9073	1
8	10149	27.916226	0
8	10152	27.918648	1
8	10160	27.927574	0
8	10164	27.945976	1
8	10171	27.954902	0
8	10175	27.968464	1
8	10182	27.97739	0
8	10185	27.977652	1
8	10192	27.986578	0
8	10203	28.00474	1
8	10210	28.013666	0
8	10213	28.020308	1
8	10221	28.029234	0
8	10224	28.036376	1
8	10232	28.045302	0
8	10236	28.058024	1
8	10243	28.06695	0
8	10246	28.075252	1
8	10254	28.084178	0
8	10258	28.09986	1
8	10271	28.108786	0
8	10275	28.123908	1
8	10282	28.132834	0
8	10286	28.146436	1
8	10293	28.155362	0
8	10297	28.169344	1
8	10304	28.17827	0
8	10307	28.181632	1
8	10315	28.190558	0
8	10325	28.2034	1
8	10332	28.212326	0
8	10336	28.226168	1
8	10343	28.235094	0
8	10346	28.241516	1
8	10354	28.250442	0
8	10358	28.269744	1
8	10365	28.27867	0
8	10368	28.283152	1
8	10376	28.292078	0
8	10386	28.30456	1
8	10393	28.313486	0
8	10396	28.314648	1
8	10404	28.323574	0
8	10408	28.337376	1
8	10415	28.346302	0
8	10419	28.362044	1
8	10426	28.37097	0
8	10430	28.391352	1
8	10443	28.400278	0
8	10447	28.41706	1
8	10454	28.425986	0
8	10458	28.444108	1
8	10465	28.453034	0
8	10468	28.459676	1
8	10476	28.468602	0
8	10480	28.486524	1
8	10487	28.49545	0
8	10497	28.511092	1
8	10504	28.520018	0
8	10507	28.52348	1
8	10515	28.532406	0
8	10518	28.537048	1
8	10526	28.545974	0
8	10529	28.553836	1
8	10537	28.562762	0
8	10540	28.564184	1
8	10548	28.57311	0
8	10552	28.589192	1
8	10559	28.598118	0
8	10569	28.61772	1
8	10576	28.626646	0
8	10579	28.634328	1
8	10587	28.643254	0
8	10590	28.647516	1
8	10598	28.656442	0
8	10602	28.677004	1
8	10609	28.68593	0
8	10612	28.687592	1
8	10620	28.696518	0
8	10629	28.70244	1
8	10637	28.711366	0
8	10640	28.713768	1
8	10648	28.722694	0
8	10652	28.732856	1
8	10659	28.741782	0
8	10662	28.742964	1
8	10670	28.75189	0
8	10674	28.763272	1
8	10681	28.772198	0
8	10685	28.78914	1
8	10692	28.798066	0
8	10701	28.802648	1
8	10709	28.811574	0
8	10712	28.812536	1
8	10720	28.821462	0
8	10724	28.837764	1
8	10731	28.84669	0
8	10735	28.863912	1
8	10742	28.872838	0
8	10745	28.88188	1
8	10753	28.890806	0
8	10763	28.908988	1
8	10770	28.917914	0
8	10773	28.923436	1
8	10781	28.932362	0
8	10784	28.941084	1
8	10792	28.95001	0
8	10796	28.962992	1
8	10803	28.971918	0
8	10807	28.9861	1
8	10814	28.995026	0
8	10823	29.002888	1
8	10831	29.011814	0
8	10834	29.016396	1
8	10842	29.025322	0
8	10846	29.041024	1
8	10853	29.04995	0
8	10857	29.069272	1
8	10864	29.078198	0
8	10867	29.08136	1
8	10875	29.090286	0
8	10878	29.097868	1
8	10892	29.106794	0
8	10895	29.109816	1
8	10903	29.118742	0
8	10906	29.126524	1
8	10914	29.13545	0
8	10917	29.142272	1
8	10925	29.151198	0
8	10929	29.1705	1
8	10936	29.179426	0
8	10939	29.182808	1
8	10947	29.191734	0
8	10957	29.209776	1
8	10964	29.218702	0
8	10968	29.236704	1
8	10975	29.24563	0
8	10979	29.258912	1
8	10986	29.267838	0
8	10990	29.28728	1
8	10997	29.296206	0
8	11007	29.310788	1
8	11014	29.319714	0
8	11017	29.320496	1
8	11024	29.329422	0
8	11028	29.336984	1
8	11036	29.34591	0
8	11039	29.354932	1
8	11047	29.363858	0
8	11051	29.38434	1
8	11058	29.393266	0
8	11061	29.397468	1
8	11075	29.406394	0
8	11078	29.411036	1
8	11086	29.419962	0
8	11090	29.436904	1
8	11097	29.44583	0
8	11101	29.466172	1
8	11108	29.475098	0
8	11111	29.48308	1
8	11119	29.492006	0
8	11129	29.503368	1
8	11136	29.512294	0
8	11140	29.525096	1
8	11147	29.534022	0
8	11150	29.534744	1
8	11157	29.54367	0
8	11161	29.544812	1
8	11169	29.553738	0
8	11173	29.57364	1
8	11180	29.582566	0
8	11183	29.590168	1
8	11191	29.599094	0
8	11201	29.615596	1
8	11208	29.624522	0
8	11212	29.639184	1
8	11219	29.64811	0
8	11223	29.658912	1
8	11230	29.667838	0
8	11234	29.68788	1
8	11241	29.696806	0
8	11251	29.707308	1
8	11258	29.716234	0
8	11261	29.720156	1
8	11269	29.729082	0
8	11273	29.749244	1
8	11280	29.75817	0
8	11284	29.769572	1
8	11291	29.778498	0
8	11295	29.79142	1
8	11308	29.800346	0
8	11312	29.811048	1
8	11319	29.819974	0
8	11322	29.826116	1
8	11330	29.835042	0
8	11333	29.837984	1
8	11341	29.84691	0
8	11345	29.865452	1
8	11352	29.874378	0
8	11356	29.88592	1
8	11363	29.894846	0
8	11373	29.905128	1
8	11380	29.914054	0
8	11383	29.917716	1
8	11391	29.926642	0
8	11394	29.930344	1
8	11402	29.93927	0
8	11406	29.951492	1
8	11413	29.960418	0
8	11417	29.97842	1
8	11424	29.987346	0
8	11427	29.988468	1
8	11435	29.997394	0
8	11444	30.002436	1
8	11452	30.011362	0
8	11455	30.020984	1
8	11463	30.02991	0
8	11466	30.037972	1
8	11474	30.046898	0
8	11478	30.06472	1
8	11485	30.073646	0
8	11488	30.074588	1
8	11496	30.083514	0
8	11499	30.086836	1
8	11507	30.095762	0
8	11516	30.100224	1
8	11524	30.10915	0
8	11528	30.126052	1
8	11535	30.134978	0
8	11539	30.14834	1
8	11546	30.157266	0
8	11550	30.177408	1
8	11557	30.186334	0
8	11560	30.195736	1
8	11574	30.204662	0
8	11578	30.221844	1
8	11585	30.23077	0
8	11589	30.248212	1
8	11596	30.257138	0
8	11600	30.26742	1
8	11607	30.276346	0
8	11610	30.283548	1
8	11618	30.292474	0
8	11628	30.308216	1
8	11635	30.317142	0
8	11639	30.327484	1
8	11646	30.33641	0
8	11649	30.339252	1
8	11657	30.348178	0
8	11661	30.3581	1
8	11668	30.367026	0
8	11671	30.371448	1
8	11679	30.380374	0
8	11683	30.394116	1
8	11696	30.403042	0
8	11700	30.414884	1
8	11707	30.42381	0
8	11710	30.429832	1
8	11718	30.438758	0
8	11722	30.45648	1
8	11729	30.465406	0
8	11732	30.466648	1
8	11740	30.475574	0
8	11743	30.482896	1
8	11751	30.491822	0
8	11760	30.500424	1
8	11768	30.50935	0
8	11771	30.518672	1
8	11779	30.527598	0
8	11783	30.5424	1
8	11790	30.551326	0
8	11793	30.557448	1
8	11801	30.566374	0
8	11805	30.585016	1
8	11812	30.593942	0
8	11822	30.604864	1
8	11829	30.61379	0
8	11832	30.621812	1
8	11840	30.630738	0
8	11843	30.6352	1
8	11851	30.644126	0
8	11854	30.645108	1
8	11862	30.654034	0
8	11866	30.670396	1
8	11873	30.679322	0
8	11876	30.680184	1
8	11884	30.68911	0
8	11887	30.695332	1
8	11901	30.704258	0
8	11905	30.7208	1
8	11912	30.729726	0
8	11915	30.736788	1
8	11923	30.745714	0
8	11927	30.762076	1
8	11934	30.771002	0
8	11937	30.777944	1
8	11945	30.78687	0
8	11955	30.804652	1
8	11962	30.813578	0
8	11966	30.83402	1
8	11973	30.842946	0
8	11977	30.855968	1
8	11984	30.864894	0
8	11987	30.869236	1
8	11995	30.878162	0
8	11999	30.895464	1
8	12012	30.90439	0
8	12016	30.914712	1
8	12023	30.923638	0
8	12027	30.93508	1
8	12034	30.944006	0
8	12038	30.959068	1
8	12045	30.967994	0
8	12049	30.985436	1
8	12056	30.994362	0
8	12066	31.006904	1
8	12073	31.01583	0
8	12076	31.022032	1
8	12084	31.030958	0
8	12087	31.03526	1
8	12095	31.044186	0
8	12099	31.063048	1
8	12106	31.071974	0
8	12110	31.083336	1
8	12117	31.092262	0
8	12127	31.112264	1
8	12134	31.12119	0
8	12137	31.121572	1
8	12144	31.130498	0
8	12148	31.1382	1
8	12156	31.147126	0
8	12160	31.158348	1
8	12167	31.167274	0
8	12171	31.177716	1
8	12178	31.186642	0
8	12182	31.197344	1
8	12195	31.20627	0
8	12198	31.207852	1
8	12206	31.216778	0
8	12209	31.21742	1
8	12216	31.226346	0
8	12221	31.246328	1
8	12228	31.255254	0
8	12232	31.269256	1
8	12239	31.278182	0
8	12242	31.285084	1
8	12250	31.29401	0
8	12253	31.298812	1
8	12267	31.307738	0
8	12271	31.32788	1
8	12278	31.336806	0
8	12281	31.339548	1
8	12289	31.348474	0
8	12293	31.359876	1
8	12300	31.368802	0
8	12303	31.373344	1
8	12311	31.38227	0
8	12315	31.392052	1
8	12328	31.400978	0
8	12332	31.4125	1
8	12339	31.421426	0
8	12342	31.428448	1
8	12350	31.437374	0
8	12353	31.439736	1
8	12361	31.448662	0
8	12364	31.452064	1
8	12372	31.46099	0
8	12376	31.472652	1
8	12383	31.481578	0
8	12387	31.49448	1
8	12400	31.503406	0
8	12404	31.515588	1
8	12411	31.524514	0
8	12415	31.537476	1
8	12422	31.546402	0
8	12426	31.561544	1
8	12433	31.57047	0
8	12437	31.585932	1
8	12444	31.594858	0
8	12454	31.61434	1
8	12461	31.623266	0
8	12464	31.625748	1
8	12472	31.634674	0
8	12476	31.654936	1
8	12483	31.663862	0
8	12487	31.677124	1
8	12494	31.68605	0
8	12498	31.698492	1
8	12511	31.707418	0
8	12515	31.72396	1
8	12522	31.732886	0
8	12525	31.742528	1
8	12533	31.751454	0
8	12537	31.771016	1
8	12544	31.779942	0
8	12547	31.780764	1
8	12554	31.78969	0
8	12565	31.805032	1
8	12572	31.813958	0
8	12575	31.81436	1
8	12582	31.823286	0
8	12586	31.831668	1
8	12594	31.840594	0
8	12597	31.844936	1
8	12605	31.853862	0
8	12608	31.859504	1
8	12616	31.86843	0
8	12619	31.872112	1
8	12627	31.881038	0
8	12631	31.8938	1
8	12644	31.902726	0
8	12648	31.915648	1
8	12655	31.924574	0
8	12658	31.928756	1
8	12666	31.937682	0
8	12669	31.947204	1
8	12677	31.95613	0
8	12681	31.973052	1
8	12688	31.981978	0
8	12692	31.99388	1
8	12705	32.002806	0
8	12708	32.006428	1
8	12716	32.015354	0
8	12720	32.028276	1
8	12727	32.037202	0
8	12731	32.051664	1
8	12738	32.06059	0
8	12742	32.076552	1
8	12749	32.085478	0
8	12752	32.0938	1
8	12766	32.102726	0
8	12769	32.106828	1
8	12777	32.115754	0
8	12780	32.116596	1
8	12787	32.125522	0
8	12791	32.125744	1
8	12798	32.13467	0
8	12803	32.154552	1
8	12810	32.163478	0
8	12813	32.16634	1
8	12821	32.175266	0
8	12825	32.185708	1
8	12832	32.194634	0
8	12841	32.201036	1
8	12849	32.209962	0
8	12853	32.228964	1
8	12860	32.23789	0
8	12863	32.247412	1
8	12871	32.256338	0
8	12875	32.26638	1
8	12882	32.275306	0
8	12885	32.280588	1
8	12893	32.289514	0
8	12896	32.292156	1
8	12910	32.301082	0
8	12913	32.304584	1
8	12921	32.31351	0
8	12925	32.330972	1
8	12932	32.339898	0
8	12936	32.35342	1
8	12943	32.362346	0
8	12947	32.377688	1
8	12954	32.386614	0
8	12957	32.395916	1
8	12971	32.404842	0
8	12975	32.419184	1
8	12982	32.42811	0
8	12986	32.447672	1
8	12993	32.456598	0
8	12996	32.46358	1
8	13004	32.472506	0
8	13007	32.481408	1
8	13015	32.490334	0
8	13025	32.502556	1
8	13032	32.511482	0
8	13035	32.512224	1
8	13042	32.52115	0
8	13047	32.531772	1
8	13054	32.540698	0
8	13057	32.54332	1
8	13065	32.552246	0
8	13069	32.564588	1
8	13076	32.573514	0
8	13080	32.585496	1
8	13087	32.594422	0
8	13097	32.611704	1
8	13104	32.62063	0
8	13108	32.633892	1
8	13115	32.642818	0
8	13119	32.65418	1
8	13126	32.663106	0
8	13129	32.664948	1
8	13137	32.673874	0
8	13140	32.682556	1
8	13148	32.691482	0
8	13151	32.699224	1
8	13165	32.70815	0
8	13168	32.710432	1
8	13176	32.719358	0
8	13179	32.72876	1
8	13187	32.737686	0
8	13190	32.744148	1
8	13198	32.753074	0
8	13202	32.773396	1
8	13209	32.782322	0
8	13212	32.787004	1
8	13220	32.79593	0
8	13229	32.801232	1
8	13237	32.810158	0
8	13240	32.81842	1
8	13248	32.827346	0
8	13252	32.839308	1
8	13259	32.848234	0
8	13262	32.855136	1
8	13270	32.864062	0
8	13274	32.881824	1
8	13281	32.89075	0
8	13291	32.910952	1
8	13298	32.919878	0
8	13302	32.93986	1
8	13309	32.948786	0
8	13313	32.963208	1
8	13320	32.972134	0
8	13324	32.983036	1
8	13331	32.991962	0
8	13341	33.012324	1
8	13348	33.02125	0
8	13351	33.022372	1
8	13359	33.031298	0
8	13362	33.03452	1
8	13370	33.043446	0
8	13374	33.058108	1
8	13381	33.067034	0
8	13385	33.079156	1
8	13392	33.088082	0
8	13402	33.105904	1
8	13409	33.11483	0
8	13412	33.120792	1
8	13420	33.129718	0
8	13423	33.13514	1
8	13431	33.144066	0
8	13434	33.149688	1
8	13442	33.158614	0
8	13446	33.170236	1
8	13453	33.179162	0
8	13456	33.185264	1
8	13464	33.19419	0
8	13474	33.211992	1
8	13481	33.220918	0
8	13485	33.2373	1
8	13492	33.246226	0
8	13496	33.261408	1
8	13503	33.270334	0
8	13506	33.277436	1
8	13514	33.286362	0
8	13517	33.288344	1
8	13525	33.29727	0
8	13535	33.314592	1
8	13542	33.323518	0
8	13545	33.32964	1
8	13553	33.338566	0
8	13556	33.342928	1
8	13564	33.351854	0
8	13567	33.359836	1
8	13575	33.368762	0
8	13579	33.380064	1
8	13586	33.38899	0
8	13589	33.392172	1
8	13603	33.401098	0
8	13607	33.41466	1
8	13614	33.423586	0
8	13617	33.424308	1
8	13624	33.433234	0
8	13629	33.443236	1
8	13636	33.452162	0
8	13639	33.458644	1
8	13647	33.46757	0
8	13650	33.475032	1
8	13658	33.483958	0
8	13661	33.49234	1
8	13675	33.501266	0
8	13679	33.511888	1
8	13686	33.520814	0
8	13689	33.530076	1
8	13697	33.539002	0
8	13701	33.554324	1
8	13708	33.56325	0
8	13711	33.567172	1
8	13719	33.576098	0
8	13722	33.57644	1
8	13729	33.585366	0
8	13734	33.599768	1
8	13747	33.608694	0
8	13751	33.624056	1
8	13758	33.632982	0
8	13762	33.645224	1
8	13769	33.65415	0
8	13773	33.665912	1
8	13780	33.674838	0
8	13783	33.67796	1
8	13791	33.686886	0
8	13794	33.689828	1
8	13802	33.698754	0
8	13811	33.707416	1
8	13819	33.716342	0
8	13823	33.734084	1
8	13830	33.74301	0
8	13833	33.747892	1
8	13841	33.756818	0
8	13845	33.76874	1
8	13852	33.777666	0
8	13855	33.784008	1
8	13863	33.792934	0
8	13873	33.812656	1
8	13880	33.821582	0
8	13884	33.836544	1
8	13891	33.84547	0
8	13895	33.858612	1
8	13902	33.867538	0
8	13905	33.87618	1
8	13913	33.885106	0
8	13917	33.895868	1
8	13930	33.904794	0
8	13933	33.905196	1
8	13940	33.914122	0
8	13944	33.916964	1
8	13952	33.92589	0
8	13956	33.936032	1
8	13963	33.944958	0
8	13966	33.95278	1
8	13974	33.961706	0
8	13978	33.975528	1
8	13985	33.984454	0
8	13988	33.985716	1
8	13996	33.994642	0
8	14005	34.000544	1
8	14013	34.00947	0
8	14016	34.013712	1
8	14024	34.022638	0
8	14027	34.0303	1
8	14035	34.039226	0
8	14039	34.056488	1
8	14046	34.065414	0
8	14050	34.078676	1
8	14057	34.087602	0
8	14067	34.107404	1
8	14074	34.11633	0
8	14078	34.128892	1
8	14085	34.137818	0
8	14088	34.14676	1
8	14096	34.155686	0
8	14099	34.162068	1
8	14107	34.170994	0
8	14111	34.181396	1
8	14118	34.190322	0
8	14128	34.203384	1
8	14135	34.21231	0
8	14139	34.231152	1
8	14146	34.240078	0
8	14149	34.2438	1
8	14157	34.252726	0
8	14160	34.258088	1
8	14168	34.267014	0
8	14171	34.272316	1
8	14179	34.281242	0
8	14189	34.300484	1
8	14196	34.30941	0
8	14199	34.315372	1
8	14207	34.324298	0
8	14210	34.32862	1
8	14218	34.337546	0
8	14222	34.351048	1
8	14229	34.359974	0
8	14233	34.379696	1
8	14240	34.388622	0
8	14250	34.403444	1
8	14257	34.41237	0
8	14261	34.432912	1
8	14268	34.441838	0
8	14272	34.45506	1
8	14279	34.463986	0
8	14283	34.483388	1
8	14290	34.492314	0
8	14293	34.498796	1
8	14307	34.507722	0
8	14311	34.527944	1
8	14318	34.53687	0
8	14322	34.552312	1
8	14329	34.561238	0
8	14332	34.5616	1
8	14339	34.570526	0
8	14343	34.579888	1
8	14351	34.588814	0
8	14361	34.604416	1
8	14368	34.613342	0
8	14372	34.629064	1
8	14379	34.63799	0
8	14383	34.648412	1
8	14390	34.657338	0
8	14393	34.66612	1
8	14401	34.675046	0
8	14404	34.680228	1
8	14412	34.689154	0
8	14422	34.700776	1
8	14429	34.709702	0
8	14432	34.711324	1
8	14440	34.72025	0
8	14444	34.731312	1
8	14451	34.740238	0
8	14455	34.75176	1
8	14462	34.760686	0
8	14466	34.775148	1
8	14473	34.784074	0
8	14483	34.801776	1
8	14490	34.810702	0
8	14493	34.820404	1
8	14501	34.82933	0
8	14505	34.848872	1
8	14512	34.857798	0
8	14515	34.86316	1
8	14523	34.872086	0
8	14527	34.886168	1
8	14534	34.895094	0
8	14544	34.912356	1
8	14551	34.921282	0
8	14554	34.927224	1
8	14562	34.93615	0
8	14566	34.953152	1
8	14573	34.962078	0
8	14577	34.98262	1
8	14584	34.991546	0
8	14587	34.995528	1
8	14601	35.004454	0
8	14604	35.009936	1
8	14612	35.018862	0
8	14615	35.023384	1
8	14623	35.03231	0
8	14627	35.051312	1
8	14634	35.060238	0
8	14638	35.07992	1
8	14645	35.088846	0
8	14648	35.090468	1
8	14656	35.099394	0
8	14665	35.105376	1
8	14673	35.114302	0
8	14676	35.116844	1
8	14684	35.12577	0
8	14687	35.131152	1
8	14695	35.140078	0
8	14699	35.15958	1
8	14706	35.168506	0
8	14710	35.185408	1
8	14717	35.194334	0
8	14727	35.208316	1
8	14734	35.217242	0
8	14737	35.218384	1
8	14745	35.22731	0
8	14749	35.240172	1
8	14756	35.249098	0
8	14759	35.25514	1
8	14767	35.264066	0
8	14771	35.280608	1
8	14778	35.289534	0
8	14781	35.294676	1
8	14795	35.303602	0
8	14798	35.310644	1
8	14806	35.31957	0
8	14810	35.331552	1
8	14817	35.340478	0
8	14821	35.3541	1
8	14828	35.363026	0
8	14832	35.382108	1
8	14839	35.391034	0
8	14849	35.408436	1
8	14856	35.417362	0
8	14859	35.425524	1
8	14867	35.43445	0
8	14871	35.449972	1
8	14878	35.458898	0
8	14882	35.47778	1
8	14889	35.486706	0
8	14899	35.503928	1
8	14906	35.512854	0
8	14909	35.514936	1
8	14917	35.523862	0
8	14920	35.526984	1
8	14928	35.53591	0
8	14931	35.539632	1
8	14939	35.548558	0
8	14942	35.5523	1
8	14950	35.561226	0
8	14954	35.574048	1
8	14961	35.582974	0
8	14964	35.586896	1
8	14972	35.595822	0
8	14982	35.613384	1
8	14989	35.62231	0
8	14993	35.641032	1
8	15000	35.649958	0
8	15004	35.66544	1
8	15011	35.674366	0
8	15015	35.691808	1
8	15028	35.700734	0
8	15031	35.710336	1
8	15039	35.719262	0
8	15043	35.736804	1
8	15050	35.74573	0
8	15054	35.757252	1
8	15061	35.766178	0
8	15065	35.78278	1
8	15072	35.791706	0
8	15075	35.796228	1
8	15089	35.805154	0
8	15092	35.807896	1
8	15100	35.816822	0
8	15104	35.830764	1
8	15111	35.83969	0
8	15115	35.854172	1
8	15122	35.863098	0
8	15126	35.87366	1
8	15133	35.882586	0
8	15137	35.897988	1
8	15150	35.906914	0
8	15154	35.919996	1
8	15161	35.928922	0
8	15165	35.947004	1
8	15172	35.95593	0
8	15176	35.976212	1
8	15183	35.985138	0
8	15193	36.00018	1
8	15200	36.009106	0
8	15204	36.020288	1
8	15211	36.029214	0
8	15215	36.049676	1
8	15222	36.058602	0
8	15226	36.072224	1
8	15233	36.08115	0
8	15236	36.090792	1
8	15244	36.099718	0
8	15253	36.10814	1
8	15261	36.117066	0
8	15265	36.129088	1
8	15272	36.138014	0
8	15275	36.146976	1
8	15283	36.155902	0
8	15286	36.159164	1
8	15294	36.16809	0
8	15297	36.174572	1
8	15305	36.183498	0
8	15308	36.18912	1
8	15316	36.198046	0
8	15319	36.199968	1
8	15333	36.208894	0
8	15337	36.228676	1
8	15344	36.237602	0
8	15347	36.246244	1
8	15355	36.25517	0
8	15358	36.256552	1
8	15366	36.265478	0
8	15370	36.2763	1
8	15377	36.285226	0
8	15387	36.304468	1
8	15394	36.313394	0
8	15397	36.321096	1
8	15405	36.330022	0
8	15408	36.335184	1
8	15416	36.34411	0
8	15419	36.348412	1
8	15427	36.357338	0
8	15431	36.36882	1
8	15438	36.377746	0
8	15441	36.384308	1
8	15449	36.393234	0
8	15459	36.407356	1
8	15466	36.416282	0
8	15470	36.430204	1
8	15477	36.43913	0
8	15481	36.449632	1
8	15488	36.458558	0
8	15492	36.47878	1
8	15499	36.487706	0
8	15502	36.490908	1
8	15510	36.499834	0
8	15520	36.518596	1
8	15527	36.527522	0
8	15531	36.541384	1
8	15538	36.55031	0
8	15542	36.565512	1
8	15549	36.574438	0
8	15553	36.59198	1
8	15566	36.600906	0
8	15570	36.618428	1
8	15577	36.627354	0
8	15581	36.641856	1
8	15588	36.650782	0
8	15592	36.662164	1
8	15599	36.67109	0
8	15603	36.691112	1
8	15616	36.700038	0
8	15620	36.71542	1
8	15627	36.724346	0
8	15630	36.724508	1
8	15637	36.733434	0
8	15641	36.736256	1
8	15649	36.745182	0
8	15652	36.746824	1
8	15660	36.75575	0
8	15663	36.758292	1
8	15671	36.767218	0
8	15674	36.77556	1
8	15682	36.784486	0
8	15685	36.784948	1
8	15692	36.793874	0
8	15702	36.801256	1
8	15710	36.810182	0
8	15713	36.817064	1
8	15721	36.82599	0
8	15725	36.835832	1
8	15732	36.844758	0
8	15736	36.8593	1
8	15743	36.868226	0
8	15747	36.882428	1
8	15754	36.891354	0
8	15764	36.911916	1
8	15771	36.920842	0
8	15774	36.930544	1
8	15782	36.93947	0
8	15786	36.951532	1
8	15793	36.960458	0
8	15797	36.98032	1
8	15804	36.989246	0
8	15807	36.998988	1
8	15821	37.007914	0
8	15825	37.020496	1
8	15832	37.029422	0
8	15835	37.030684	1
8	15843	37.03961	0
8	15846	37.047252	1
8	15854	37.056178	0
8	15858	37.07378	1
8	15865	37.082706	0
8	15869	37.096928	1
8	15882	37.105854	0
8	15885	37.108116	1
8	15893	37.117042	0
8	15897	37.127784	1
8	15904	37.13671	0
8	15908	37.150512	1
8	15915	37.159438	0
8	15918	37.16268	1
8	15926	37.171606	0
8	15929	37.173908	1
8	15937	37.182834	0
8	15940	37.189836	1
8	15948	37.198762	0
8	15958	37.219364	1
8	15965	37.22829	0
8	15969	37.248172	1
8	15976	37.257098	0
8	15980	37.27234	1
8	15987	37.281266	0
8	15991	37.298628	1
8	16004	37.307554	0
8	16008	37.321636	1
8	16015	37.330562	0
8	16019	37.341804	1
8	16026	37.35073	0
8	16030	37.363612	1
8	16037	37.372538	0
8	16040	37.37508	1
8	16048	37.384006	0
8	16051	37.386068	1
8	16059	37.394994	0
8	16069	37.408076	1
8	16076	37.417002	0
8	16079	37.420424	1
8	16087	37.42935	0
8	16090	37.431212	1
8	16098	37.440138	0
8	16102	37.45658	1
8	16109	37.465506	0
8	16113	37.481968	1
8	16120	37.490894	0
8	16130	37.504396	1
8	16137	37.513322	0
8	16141	37.525984	1
8	16148	37.53491	0
8	16152	37.548152	1
8	16159	37.557078	0
8	16162	37.56596	1
8	16170	37.574886	0
8	16173	37.580448	1
8	16181	37.589374	0
8	16184	37.596476	1
8	16198	37.605402	0
8	16202	37.615984	1
8	16209	37.62491	0
8	16213	37.638172	1
8	16220	37.647098	0
8	16223	37.65102	1
8	16231	37.659946	0
8	16235	37.671628	1
8	16242	37.680554	0
8	16246	37.690416	1
8	16253	37.699342	0
8	16263	37.713864	1
8	16270	37.72279	0
8	16274	37.741292	1
8	16281	37.750218	0
8	16285	37.76442	1
8	16292	37.773346	0
8	16295	37.783048	1
8	16303	37.791974	0
8	16313	37.811776	1
8	16320	37.820702	0
8	16323	37.823804	1
8	16331	37.83273	0
8	16335	37.845232	1
8	16342	37.854158	0
8	16346	37.87274	1
8	16353	37.881666	0
8	16357	37.898088	1
8	16370	37.907014	0
8	16374	37.917476	1
8	16381	37.926402	0
8	16385	37.945464	1
8	16392	37.95439	0
8	16395	37.954772	1
8	16402	37.963698	0
8	16407	37.97808	1
8	16414	37.987006	0
8	16417	37.992768	1
8	16431	38.001694	0
8	16434	38.010696	1
8	16442	38.019622	0
8	16446	38.038864	1
8	16453	38.04779	0
8	16456	38.054112	1
8	16464	38.063038	0
8	16468	38.08004	1
8	16475	38.088966	0
8	16478	38.089228	1
8	16485	38.098154	0
8	16496	38.111096	1
8	16503	38.120022	0
8	16507	38.134604	1
8	16514	38.14353	0
8	16518	38.157852	1
8	16525	38.166778	0
8	16528	38.17282	1
8	16536	38.181746	0
8	16540	38.195068	1
8	16553	38.203994	0
8	16557	38.216716	1
8	16564	38.225642	0
8	16567	38.229744	1
8	16575	38.23867	0
8	16578	38.245952	1
8	16586	38.254878	0
8	16590	38.26712	1
8	16597	38.276046	0
8	16600	38.284348	1
8	16608	38.293274	0
8	16611	38.297836	1
8	16625	38.306762	0
8	16629	38.323904	1
8	16636	38.33283	0
8	16639	38.337872	1
8	16647	38.346798	0
8	16650	38.34696	1
8	16657	38.355886	0
8	16662	38.375688	1
8	16669	38.384614	0
8	16672	38.389836	1
8	16680	38.398762	0
8	16690	38.415244	1
8	16697	38.42417	0
8	16700	38.430232	1
8	16708	38.439158	0
8	16712	38.45876	1
8	16719	38.467686	0
8	16723	38.481528	1
8	16730	38.490454	0
8	16740	38.508516	1
8	16747	38.517442	0
8	16750	38.525464	1
8	16758	38.53439	0
8	16762	38.553192	1
8	16769	38.562118	0
8	16772	38.56972	1
8	16780	38.578646	0
8	16783	38.585188	1
8	16791	38.594114	0
8	16794	38.598796	1
8	16808	38.607722	0
8	16812	38.624064	1
8	16819	38.63299	0
8	16822	38.637572	1
8	16830	38.646498	0
8	16834	38.65644	1
8	16841	38.665366	0
8	16845	38.681748	1
8	16852	38.690674	0
8	16862	38.708976	1
8	16869	38.717902	0
8	16873	38.729924	1
8	16880	38.73885	0
8	16883	38.745432	1
8	16891	38.754358	0
8	16894	38.75898	1
8	16902	38.767906	0
8	16906	38.784328	1
8	16913	38.793254	0
8	16916	38.798936	1
8	16930	38.807862	0
8	16934	38.818904	1
8	16941	38.82783	0
8	16944	38.833912	1
8	16952	38.842838	0
8	16955	38.84802	1
8	16963	38.856946	0
8	16967	38.868108	1
8	16974	38.877034	0
8	16977	38.886656	1
8	16985	38.895582	0
8	16988	38.895884	1
8	17001	38.90481	0
8	17005	38.913612	1
8	17013	38.922538	0
8	17017	38.9354	1
8	17024	38.944326	0
8	17027	38.947948	1
8	17035	38.956874	0
8	17038	38.958256	1
8	17046	38.967182	0
8	17049	38.976104	1
8	17057	38.98503	0
8	17060	38.990792	1
8	17068	38.999718	0
8	17077	39.00762	1
8	17085	39.016546	0
8	17088	39.022168	1
8	17096	39.031094	0
8	17099	39.032776	1
8	17107	39.041702	0
8	17110	39.045884	1
8	17118	39.05481	0
8	17122	39.065352	1
8	17129	39.074278	0
8	17132	39.07614	1
8	17140	39.085066	0
8	17144	39.096648	1
8	17157	39.105574	0
8	17160	39.109976	1
8	17168	39.118902	0
8	17172	39.139304	1
8	17179	39.14823	0
8	17182	39.151032	1
8	17190	39.159958	0
8	17193	39.16456	1
8	17201	39.173486	0
8	17204	39.180008	1
8	17212	39.188934	0
8	17215	39.197016	1
8	17229	39.205942	0
8	17233	39.218024	1
8	17240	39.22695	0
8	17244	39.239492	1
8	17251	39.248418	0
8	17255	39.26296	1
8	17262	39.271886	0
8	17266	39.284388	1
8	17273	39.293314	0
8	17276	39.295296	1
8	17290	39.304222	0
8	17294	39.322664	1
8	17301	39.33159	0
8	17305	39.344252	1
8	17312	39.353178	0
8	17315	39.35786	1
8	17323	39.366786	0
8	17327	39.386308	1
8	17334	39.395234	0
8	17343	39.402336	1
8	17351	39.411262	0
8	17355	39.429944	1
8	17362	39.43887	0
8	17365	39.440072	1
8	17373	39.448998	0
8	17377	39.46752	1
8	17384	39.476446	0
8	17387	39.484208	1
8	17395	39.493134	0
8	17398	39.497936	1
8	17412	39.506862	0
8	17415	39.515504	1
8	17423	39.52443	0
8	17427	39.536992	1
8	17434	39.545918	0
8	17438	39.56198	1
8	17445	39.570906	0
8	17448	39.571048	1
8	17455	39.579974	0
8	17460	39.590576	1
8	17467	39.599502	0
8	17477	39.619984	1
8	17484	39.62891	0
8	17488	39.648232	1
8	17495	39.657158	0
8	17498	39.6591	1
8	17506	39.668026	0
8	17510	39.683268	1
8	17517	39.692194	0
8	17520	39.696396	1
8	17534	39.705322	0
8	17538	39.717264	1
8	17545	39.72619	0
8	17548	39.726792	1
8	17555	39.735718	0
8	17560	39.7563	1
8	17567	39.765226	0
8	17571	39.782328	1
8	17578	39.791254	0
8	17588	39.809936	1
8	17595	39.818862	0
8	17598	39.820824	1
8	17606	39.82975	0
8	17610	39.847572	1
8	17617	39.856498	0
8	17620	39.85952	1
8	17628	39.868446	0
8	17631	39.876428	1
8	17639	39.885354	0
8	17642	39.885996	1
8	17649	39.894922	0
8	17659	39.903524	1
8	17667	39.91245	0
8	17670	39.919612	1
8	17678	39.928538	0
8	17682	39.945	1
8	17689	39.953926	0
8	17693	39.965068	1
8	17700	39.973994	0
8	17704	39.988876	1
8	17711	39.997802	0
8	17721	40.008644	1
8	17728	40.01757	0
8	17731	40.022852	1
8	17739	40.031778	0
8	17743	40.05042	1
8	17750	40.059346	0
8	17753	40.061568	1
8	17761	40.070494	0
8	17764	40.072956	1
8	17772	40.081882	0
8	17776	40.093844	1
8	17789	40.10277	0
8	17793	40.117012	1
8	17800	40.125938	0
8	17804	40.14654	1
8	17811	40.155466	0
8	17814	40.162468	1
8	17822	40.171394	0
8	17826	40.190176	1
8	17833	40.199102	0
8	17843	40.215244	1
8	17850	40.22417	0
8	17853	40.231252	1
8	17861	40.240178	0
8	17864	40.24388	1
8	17872	40.252806	0
8	17875	40.255468	1
8	17883	40.264394	0
8	17887	40.284716	1
8	17894	40.293642	0
8	17904	40.308064	1
8	17911	40.31699	0
8	17915	40.335772	1
8	17922	40.344698	0
8	17925	40.35386	1
8	17933	40.362786	0
8	17937	40.380708	1
8	17944	40.389634	0
8	17947	40.392656	1
8	17961	40.401582	0
8	17964	40.409564	1
8	17972	40.41849	0
8	17976	40.430312	1
8	17983	40.439238	0
8	17987	40.4579	1
8	17994	40.466826	0
8	17997	40.471388	1
8	18005	40.480314	0
8	18009	40.495496	1
8	18022	40.504422	0
8	18025	40.505124	1
8	18032	40.51405	0
8	18037	40.529272	1
8	18044	40.538198	0
8	18048	40.55466	1
8	18055	40.563586	0
8	18059	40.582608	1
8	18066	40.591534	0
8	18076	40.607936	1
8	18083	40.616862	0
8	18087	40.633024	1
8	18094	40.64195	0
8	18097	40.650072	1
8	18105	40.658998	0
8	18109	40.67472	1
8	18116	40.683646	0
8	18120	40.696548	1
8	18133	40.705474	0
8	18136	40.709636	1
8	18144	40.718562	0
8	18147	40.719904	1
8	18155	40.72883	0
8	18158	40.737272	1
8	18166	40.746198	0
8	18169	40.75134	1
8	18177	40.760266	0
8	18181	40.776188	1
8	18188	40.785114	0
8	18191	40.794456	1
8	18205	40.803382	0
8	18209	40.819164	1
8	18216	40.82809	0
8	18219	40.837712	1
8	18227	40.846638	0
8	18231	40.86492	1
8	18238	40.873846	0
8	18242	40.886448	1
8	18249	40.895374	0
8	18258	40.900016	1
8	18266	40.908942	0
8	18270	40.922424	1
8	18277	40.93135	0
8	18280	40.938452	1
8	18288	40.947378	0
8	18291	40.95544	1
8	18299	40.964366	0
8	18302	40.970928	1
8	18310	40.979854	0
8	18313	40.987496	1
8	18321	40.996422	0
8	18331	41.007244	1
8	18338	41.01617	0
8	18342	41.030812	1
8	18349	41.039738	0
8	18352	41.04926	1
8	18360	41.058186	0
8	18364	41.073208	1
8	18371	41.082134	0
8	18375	41.094136	1
8	18388	41.103062	0
8	18392	41.117364	1
8	18399	41.12629	0
8	18402	41.133332	1
8	18410	41.142258	0
8	18413	41.14696	1
8	18421	41.155886	0
8	18425	41.171948	1
8	18432	41.180874	0
8	18436	41.190756	1
8	18443	41.199682	0
8	18453	41.218844	1
8	18460	41.22777	0
8	18464	41.239292	1
8	18471	41.248218	0
8	18474	41.25582	1
8	18482	41.264746	0
8	18485	41.268328	1
8	18493	41.277254	0
8	18497	41.296216	1
8	18510	41.305142	0
8	18514	41.321064	1
8	18521	41.32999	0
8	18525	41.348512	1
8	18532	41.357438	0
8	18535	41.35812	1
8	18542	41.367046	0
8	18547	41.380868	1
8	18554	41.389794	0
8	18557	41.390136	1
8	18564	41.399062	0
8	18575	41.410764	1
8	18582	41.41969	0
8	18585	41.423072	1
8	18593	41.431998	0
8	18597	41.44924	1
8	18604	41.458166	0
8	18607	41.465788	1
8	18615	41.474714	0
8	18618	41.478496	1
8	18626	41.487422	0
8	18636	41.505624	1
8	18643	41.51455	0
8	18646	41.515752	1
8	18654	41.524678	0
8	18657	41.52538	1
8	18664	41.534306	0
8	18669	41.545548	1
8	18676	41.554474	0
8	18680	41.565596	1
8	18687	41.574522	0
8	18691	41.593304	1
8	18704	41.60223	0
8	18708	41.619552	1
8	18715	41.628478	0
8	18718	41.63612	1
8	18726	41.645046	0
8	18729	41.650388	1
8	18737	41.659314	0
8	18741	41.673996	1
8	18748	41.682922	0
8	18752	41.699224	1
8	18765	41.70815	0
8	18768	41.714572	1
8	18776	41.723498	0
8	18779	41.7315	1
8	18787	41.740426	0
8	18791	41.757048	1
8	18798	41.765974	0
8	18802	41.786096	1
8	18809	41.795022	0
8	18819	41.806964	1
8	18826	41.81589	0
8	18830	41.827932	1
8	18837	41.836858	0
8	18841	41.85594	1
8	18848	41.864866	0
8	18851	41.868568	1
8	18859	41.877494	0
8	18862	41.884536	1
8	18870	41.893462	0
8	18879	41.900164	1
8	18887	41.90909	0
8	18890	41.917412	1
8	18898	41.926338	0
8	18901	41.93302	1
8	18909	41.941946	0
8	18913	41.954848	1
8	18920	41.963774	0
8	18924	41.978056	1
8	18931	41.986982	0
8	18934	41.992164	1
8	18948	42.00109	0
8	18952	42.014172	1
8	18959	42.023098	0
8	18963	42.0437	1
8	18970	42.052626	0
8	18973	42.053948	1
8	18981	42.062874	0
8	18984	42.068096	1
8	18992	42.077022	0
8	18996	42.093024	1
8	19009	42.10195	0
8	19012	42.106832	1
8	19020	42.115758	0
8	19023	42.11782	1
8	19031	42.126746	0
8	19034	42.127948	1
8	19042	42.136874	0
8	19045	42.140176	1
8	19053	42.149102	0
8	19056	42.149544	1
8	19063	42.15847	0
8	19068	42.169672	1
8	19075	42.178598	0
8	19078	42.18554	1
8	19086	42.194466	0
8	19095	42.201108	1
8	19103	42.210034	0
8	19106	42.212936	1
8	19114	42.221862	0
8	19118	42.231724	1
8	19125	42.24065	0
8	19128	42.249172	1
8	19136	42.258098	0
8	19139	42.26088	1
8	19147	42.269806	0
8	19150	42.271708	1
8	19158	42.280634	0
8	19161	42.282116	1
8	19169	42.291042	0
8	19179	42.300904	1
8	19186	42.30983	0
8	19190	42.326912	1
8	19197	42.335838	0
8	19200	42.34294	1
8	19208	42.351866	0
8	19212	42.369348	1
8	19219	42.378274	0
8	19223	42.391536	1
8	19236	42.400462	0
8	19239	42.404324	1
8	19247	42.41325	0
8	19251	42.426452	1
8	19258	42.435378	0
8	19261	42.44416	1
8	19269	42.453086	0
8	19273	42.469948	1
8	19280	42.478874	0
8	19283	42.488476	1
8	19291	42.497402	0
8	19294	42.498404	1
8	19308	42.50733	0
8	19311	42.514412	1
8	19319	42.523338	0
8	19323	42.53664	1
8	19330	42.545566	0
8	19334	42.562248	1
8	19341	42.571174	0
8	19345	42.591096	1
8	19358	42.600022	0
8	19362	42.615384	1
8	19369	42.62431	0
8	19373	42.637892	1
8	19380	42.646818	0
8	19383	42.65096	1
8	19391	42.659886	0
8	19395	42.674128	1
8	19402	42.683054	0
8	19405	42.684336	1
8	19413	42.693262	0
8	19423	42.705964	1
8	19430	42.71489	0
8	19433	42.718852	1
8	19441	42.727778	0
8	19445	42.74558	1
8	19452	42.754506	0
8	19455	42.758828	1
8	19463	42.767754	0
8	19467	42.784076	1
8	19474	42.793002	0
8	19483	42.800944	1
8	19491	42.80987	0
8	19495	42.827792	1
8	19502	42.836718	0
8	19506	42.84774	1
8	19513	42.856666	0
8	19517	42.869428	1
8	19524	42.878354	0
8	19528	42.895896	1
8	19541	42.904822	0
8	19545	42.915464	1
8	19552	42.92439	0
8	19556	42.941992	1
8	19563	42.950918	0
8	19567	42.97028	1
8	19574	42.979206	0
8	19578	42.992228	1
8	19591	43.001154	0
8	19594	43.003836	1
8	19602	43.012762	0
8	19606	43.032604	1
8	19613	43.04153	0
8	19617	43.053732	1
8	19624	43.062658	0
8	19628	43.07616	1
8	19635	43.085086	0
8	19638	43.090428	1
8	19646	43.099354	0
8	19656	43.113476	1
8	19663	43.122402	0
8	19667	43.132964	1
8	19674	43.14189	0
8	19678	43.161692	1
8	19685	43.170618	0
8	19688	43.17578	1
8	19696	43.184706	0
8	19700	43.198168	1
8	19713	43.207094	0
8	19717	43.224096	1
8	19724	43.233022	0
8	19728	43.250744	1
8	19735	43.25967	0
8	19738	43.262392	1
8	19746	43.271318	0
8	19749	43.2733	1
8	19757	43.282226	0
8	19761	43.293848	1
8	19774	43.302774	0
8	19777	43.303216	1
8	19784	43.312142	0
8	19789	43.325724	1
8	19796	43.33465	0
8	19800	43.354592	1
8	19807	43.363518	0
8	19810	43.37214	1
8	19818	43.381066	0
8	19828	43.400108	1
8	19835	43.409034	0
8	19838	43.414876	1
8	19846	43.423802	0
8	19849	43.429524	1
8	19857	43.43845	0
8	19861	43.458532	1
8	19868	43.467458	0
8	19871	43.4757	1
8	19879	43.484626	0
8	19883	43.498128	1
8	19896	43.507054	0
8	19900	43.519756	1
8	19907	43.528682	0
8	19910	43.536624	1
8	19918	43.54555	0
8	19922	43.557152	1
8	19929	43.566078	0
8	19933	43.582	1
8	19940	43.590926	0
8	19943	43.591748	1
8	19956	43.600674	0
8	19960	43.609796	1
8	19968	43.618722	0
8	19971	43.621024	1
8	19979	43.62995	0
8	19982	43.637332	1
8	19990	43.646258	0
8	19993	43.64774	1
8	20001	43.656666	0
8	20005	43.674788	1
8	20012	43.683714	0
8	20022	43.704196	1
8	20029	43.713122	0
8	20033	43.731904	1
8	20040	43.74083	0
8	20044	43.754912	1
8	20051	43.763838	0
8	20055	43.78148	1
8	20062	43.790406	0
8	20072	43.808668	1
8	20079	43.817594	0
8	20082	43.820916	1
8	20090	43.829842	0
8	20093	43.830924	1
8	20101	43.83985	0
8	20105	43.859292	1
8	20112	43.868218	0
8	20115	43.87414	1
8	20123	43.883066	0
8	20127	43.896968	1
8	20140	43.905894	0
8	20143	43.908076	1
8	20151	43.917002	0
8	20154	43.923964	1
8	20162	43.93289	0
8	20165	43.939272	1
8	20173	43.948198	0
8	20177	43.96096	1
8	20184	43.969886	0
8	20187	43.974088	1
8	20195	43.983014	0
8	20198	43.987656	1
8	20206	43.996582	0
8	20216	44.014584	1
8	20223	44.02351	0
8	20227	44.038392	1
8	20234	44.047318	0
8	20238	44.05784	1
8	20245	44.066766	0
8	20249	44.086708	1
8	20256	44.095634	0
8	20266	44.105596	1
8	20273	44.114522	0
8	20277	44.134704	1
8	20284	44.14363	0
8	20288	44.164152	1
8	20295	44.173078	0
8	20299	44.18694	1
8	20306	44.195866	0
8	20316	44.213628	1
8	20323	44.222554	0
8	20326	44.231756	1
8	20334	44.240682	0
8	20338	44.261264	1
8	20345	44.27019	0
8	20349	44.283612	1
8	20356	44.292538	0
8	20359	44.29412	1
8	20373	44.303046	0
8	20377	44.315748	1
8	20384	44.324674	0
8	20388	44.336396	1
8	20395	44.345322	0
8	20399	44.359744	1
8	20406	44.36867	0
8	20410	44.384812	1
8	20417	44.393738	0
8	20420	44.39864	1
8	20434	44.407566	0
8	20437	44.415748	1
8	20445	44.424674	0
8	20448	44.425316	1
8	20455	44.434242	0
8	20459	44.436944	1
8	20467	44.44587	0
8	20471	44.462872	1
8	20478	44.471798	0
8	20481	44.4778	1
8	20489	44.486726	0
8	20499	44.504488	1
8	20506	44.513414	0
8	20509	44.517296	1
8	20517	44.526222	0
8	20521	44.536184	1
8	20528	44.54511	0
8	20531	44.546132	1
8	20539	44.555058	0
8	20542	44.56182	1
8	20550	44.570746	0
8	20553	44.576588	1
8	20561	44.585514	0
8	20565	44.597896	1
8	20578	44.606822	0
8	20582	44.625444	1
8	20589	44.63437	0
8	20593	44.647712	1
8	20600	44.656638	0
8	20603	44.65718	1
8	20610	44.666106	0
8	20614	44.668348	1
8	20622	44.677274	0
8	20625	44.679356	1
8	20633	44.688282	0
8	20643	44.703724	1
8	20650	44.71265	0
8	20654	44.725472	1
8	20661	44.734398	0
8	20664	44.74188	1
8	20672	44.750806	0
8	20675	44.752348	1
8	20683	44.761274	0
8	20686	44.768756	1
8	20694	44.777682	0
8	20698	44.787784	1
8	20705	44.79671	0
8	20714	44.800992	1
8	20722	44.809918	0
8	20725	44.81354	1
8	20733	44.822466	0
8	20737	44.840908	1
8	20744	44.849834	0
8	20747	44.858416	1
8	20755	44.867342	0
8	20759	44.877684	1
8	20766	44.88661	0
8	20769	44.891292	1
8	20783	44.900218	0
8	20787	44.91932	1
8	20794	44.928246	0
8	20797	44.937228	1
8	20805	44.946154	0
8	20808	44.946716	1
8	20815	44.955642	0
8	20820	44.967724	1
8	20827	44.97665	0
8	20830	44.980432	1
8	20838	44.989358	0
[...]
73	44288	38	0
73	44288	38.1	0
73	44288	38.2	0
73	44288	38.3	0
73	44288	38.4	0
73	44288	38.5	0
73	44288	38.6	0
73	44288	38.7	0
73	44288	38.8	0
73	44288	38.9	0
73	44288	39	0
73	44288	39.1	0
73	44288	39.2	0
73	44288	39.3	0
73	44288	39.4	0
73	44288	39.5	0
73	44288	39.6	0
73	44288	39.7	0
73	44288	39.8	0
73	44288	39.9	0
73	44288	40	0
73	44288	40.1	0
73	44288	40.2	0
73	44288	40.3	0
73	44288	40.4	0
73	44288	40.5	0
73	44288	40.6	0
73	44288	40.7	0
73	44288	40.8	0
73	44288	40.9	0
73	44288	41	0
73	44288	41.1	0
73	44288	41.2	0
73	44288	41.3	0
73	44288	41.4	0
73	44288	41.5	0
73	44288	41.6	0
73	44288	41.7	0
73	44288	41.8	0
73	44288	41.9	0
73	44288	42	0
73	44288	42.1	0
73	44288	42.2	0
73	44288	42.3	0
73	44288	42.4	0
73	44288	42.5	0
73	44288	42.6	0
73	44288	42.7	0
73	44288	42.8	0
73	44288	42.9	0
73	44288	43	0
73	44288	43.1	0
73	44288	43.2	0
73	44288	43.3	0
73	44288	43.4	0
73	44288	43.5	0
73	44288	43.6	0
73	44288	43.7	0
73	44288	43.8	0
73	44288	43.9	0
73	44288	44	0
73	44288	44.1	0
73	44288	44.2	0
73	44288	44.3	0
73	44288	44.4	0
73	44288	44.5	0
73	44288	44.6	0
73	44288	44.7	0
73	44288	44.8	0
73	44288	44.9	0
73	44288	45	0
73	44288	45.1	0
73	44288	45.2	0
73	44288	45.3	0
73	44288	45.4	0
73	44288	45.5	0
73	44288	45.6	0
73	44288	45.7	0
73	44288	45.8	0
73	44288	45.9	0
73	44288	46	0
73	44288	46.1	0
73	44288	46.2	0
73	44288	46.3	0
73	44288	46.4	0
73	44288	46.5	0
73	44288	46.6	0
73	44288	46.7	0
73	44288	46.8	0
73	44288	46.9	0
73	44288	47	0
73	44288	47.1	0
73	44288	47.2	0
73	44288	47.3	0
73	44288	47.4	0
73	44288	47.5	0
73	44288	47.6	0
73	44288	47.7	0
73	44288	47.8	0
73	44288	47.9	0
73	44288	48	0
73	44288	48.1	0
73	44288	48.2	0
73	44288	48.3	0
73	44288	48.4	0
73	44288	48.5	0
73	44288	48.6	0
73	44288	48.7	0
73	44288	48.8	0
73	44288	48.9	0
73	44288	49	0
73	44288	49.1	0
73	44288	49.2	0
73	44288	49.3	0
73	44288	49.4	0
73	44288	49.5	0
73	44288	49.6	0
73	44288	49.7	0
73	44288	49.8	0
73	44288	49.9	0
73	44288	50	0
73	44288	50.1	0
73	44288	50.2	0
73	44288	50.3	0
73	44288	50.4	0
73	44288	50.5	0
73	44288	50.6	0
73	44288	50.7	0
73	44288	50.8	0
73	44288	50.9	0
73	44288	51	0
73	44288	51.1	0
73	44288	51.2	0
73	44288	51.3	0
73	44288	51.4	0
73	44288	51.5	0
73	44288	51.6	0
73	44288	51.7	0
73	44288	51.8	0
73	44288	51.9	0
73	44288	52	0
73	44288	52.1	0
73	44288	52.2	0
73	44288	52.3	0
73	44288	52.4	0
73	44288	52.5	0
73	44288	52.6	0
73	44288	52.7	0
73	44288	52.8	0
73	44288	52.9	0
73	44288	53	0
73	44288	53.1	0
73	44288	53.2	0
73	44288	53.3	0
73	44288	53.4	0
73	44288	53.5	0
73	44288	53.6	0
73	44288	53.7	0
73	44288	53.8	0
73	44288	53.9	0
73	44288	54	0
73	44288	54.1	0
73	44288	54.2	0
73	44288	54.3	0
73	44288	54.4	0
73	44288	54.5	0
73	44288	54.6	0
73	44288	54.7	0
73	44288	54.8	0
73	44288	54.9	0
73	44288	55	0
73	44288	55.1	0
73	44288	55.2	0
73	44288	55.3	0
73	44288	55.4	0
73	44288	55.5	0
73	44288	55.6	0
73	44288	55.7	0
73	44288	55.8	0
73	44288	55.9	0
73	44288	56	0
73	44288	56.1	0
73	44288	56.2	0
73	44288	56.3	0
73	44288	56.4	0
73	44288	56.5	0
73	44288	56.6	0
73	44288	56.7	0
73	44288	56.8	0
73	44288	56.9	0
73	44288	57	0
73	44288	57.1	0
73	44288	57.2	0
73	44288	57.3	0
73	44288	57.4	0
73	44288	57.5	0
73	44288	57.6	0
73	44288	57.7	0
73	44288	57.8	0
73	44288	57.9	0
73	44288	58	0
73	44288	58.1	0
73	44288	58.2	0
73	44288	58.3	0
73	44288	58.4	0
73	44288	58.5	0
73	44288	58.6	0
73	44288	58.7	0
73	44288	58.8	0
73	44288	58.9	0
73	44288	59	0
73	44288	59.1	0
73	44288	59.2	0
73	44288	59.3	0
73	44288	59.4	0
73	44288	59.5	0
73	44288	59.6	0
73	44288	59.7	0
73	44288	59.8	0
73	44288	59.9	0
73	44288	60	0
73	44288	60.1	0
73	44288	60.2	0
73	44288	60.3	0
73	44288	60.4	0
73	44288	60.5	0
73	44288	60.6	0
73	44288	60.7	0
73	44288	60.8	0
73	44288	60.9	0
73	44288	61	0
73	44288	61.1	0
73	44288	61.2	0
73	44288	61.3	0
73	44288	61.4	0
73	44288	61.5	0
73	44288	61.6	0
73	44288	61.7	0
73	44288	61.8	0
73	44288	61.9	0
73	44288	62	0
73	44288	62.1	0
73	44288	62.2	0
73	44288	62.3	0
73	44288	62.4	0
73	44288	62.5	0
73	44288	62.6	0
73	44288	62.7	0
73	44288	62.8	0
73	44288	62.9	0
73	44288	63	0
73	44288	63.1	0
73	44288	63.2	0
73	44288	63.3	0
73	44288	63.4	0
73	44288	63.5	0
73	44288	63.6	0
73	44288	63.7	0
73	44288	63.8	0
73	44288	63.9	0
73	44288	64	0
73	44288	64.1	0
73	44288	64.2	0
73	44288	64.3	0
73	44288	64.4	0
73	44288	64.5	0
73	44288	64.6	0
73	44288	64.7	0
73	44288	64.8	0
73	44288	64.9	0
73	44288	65	0
73	44288	65.1	0
73	44288	65.2	0
73	44288	65.3	0
73	44288	65.4	0
73	44288	65.5	0
73	44288	65.6	0
73	44288	65.7	0
73	44288	65.8	0
73	44288	65.9	0
73	44288	66	0
73	44288	66.1	0
73	44288	66.2	0
73	44288	66.3	0
73	44288	66.4	0
73	44288	66.5	0
73	44288	66.6	0
73	44288	66.7	0
73	44288	66.8	0
73	44288	66.9	0
73	44288	67	0
73	44288	67.1	0
73	44288	67.2	0
73	44288	67.3	0
73	44288	67.4	0
73	44288	67.5	0
73	44288	67.6	0
73	44288	67.7	0
73	44288	67.8	0
73	44288	67.9	0
73	44288	68	0
73	44288	68.1	0
73	44288	68.2	0
73	44288	68.3	0
73	44288	68.4	0
73	44288	68.5	0
73	44288	68.6	0
73	44288	68.7	0
73	44288	68.8	0
73	44288	68.9	0
73	44288	69	0
73	44288	69.1	0
73	44288	69.2	0
73	44288	69.3	0
73	44288	69.4	0
73	44288	69.5	0
73	44288	69.6	0
73	44288	69.7	0
73	44288	69.8	0
73	44288	69.9	0
73	44288	70	0
73	44288	70.1	0
73	44288	70.2	0
73	44288	70.3	0
73	44288	70.4	0
73	44288	70.5	0
73	44288	70.6	0
73	44288	70.7	0
73	44288	70.8	0
73	44288	70.9	0
73	44288	71	0
73	44288	71.1	0
73	44288	71.2	0
73	44288	71.3	0
73	44288	71.4	0
73	44288	71.5	0
73	44288	71.6	0
73	44288	71.7	0
73	44288	71.8	0
73	44288	71.9	0
73	44288	72	0
73	44288	72.1	0
73	44288	72.2	0
73	44288	72.3	0
73	44288	72.4	0
73	44288	72.5	0
73	44288	72.6	0
73	44288	72.7	0
73	44288	72.8	0
73	44288	72.9	0
73	44288	73	0
73	44288	73.1	0
73	44288	73.2	0
73	44288	73.3	0
73	44288	73.4	0
73	44288	73.5	0
73	44288	73.6	0
73	44288	73.7	0
73	44288	73.8	0
73	44288	73.9	0
73	44288	74	0
73	44288	74.1	0
73	44288	74.2	0
73	44288	74.3	0
73	44288	74.4	0
73	44288	74.5	0
73	44288	74.6	0
73	44288	74.7	0
73	44288	74.8	0
73	44288	74.9	0
73	44288	75	0
73	44288	75.1	0
73	44288	75.2	0
73	44288	75.3	0
73	44288	75.4	0
73	44288	75.5	0
73	44288	75.6	0
73	44288	75.7	0
73	44288	75.8	0
73	44288	75.9	0
73	44288	76	0
73	44288	76.1	0
73	44288	76.2	0
73	44288	76.3	0
73	44288	76.4	0
73	44288	76.5	0
73	44288	76.6	0
73	44288	76.7	0
73	44288	76.8	0
73	44288	76.9	0
73	44288	77	0
73	44288	77.1	0
73	44288	77.2	0
73	44288	77.3	0
73	44288	77.4	0
73	44288	77.5	0
73	44288	77.6	0
73	44288	77.7	0
73	44288	77.8	0
73	44288	77.9	0
73	44288	78	0
73	44288	78.1	0
73	44288	78.2	0
73	44288	78.3	0
73	44288	78.4	0
73	44288	78.5	0
73	44288	78.6	0
73	44288	78.7	0
73	44288	78.8	0
73	44288	78.9	0
73	44288	79	0
73	44288	79.1	0
73	44288	79.2	0
73	44288	79.3	0
73	44288	79.4	0
73	44288	79.5	0
73	44288	79.6	0
73	44288	79.7	0
73	44288	79.8	0
73	44288	79.9	0
73	44288	80	0
73	44288	80.1	0
73	44288	80.2	0
73	44288	80.3	0
73	44288	80.4	0
73	44288	80.5	0
73	44288	80.6	0
73	44288	80.7	0
73	44288	80.8	0
73	44288	80.9	0
73	44288	81	0
73	44288	81.1	0
73	44288	81.2	0
73	44288	81.3	0
73	44288	81.4	0
73	44288	81.5	0
73	44288	81.6	0
73	44288	81.7	0
73	44288	81.8	0
73	44288	81.9	0
73	44288	82	0
73	44288	82.1	0
73	44288	82.2	0
73	44288	82.3	0
73	44288	82.4	0
73	44288	82.401516	0
74	44288	0.1	0
74	44288	0.2	0
74	44288	0.3	0
74	44288	0.4	0
74	44288	0.5	0
74	44288	0.6	0
74	44288	0.7	0
74	44288	0.8	0
74	44288	0.9	0
74	44288	1	0
74	44288	1.1	0
74	44288	1.2	0
74	44288	1.3	0
74	44288	1.4	0
74	44288	1.5	0
74	44288	1.6	0
74	44288	1.7	0
74	44288	1.8	0
74	44288	1.9	0
74	44288	2	0
74	44288	2.1	0
74	44288	2.2	0
74	44288	2.3	0
74	44288	2.4	0
74	44288	2.5	0
74	44288	2.6	0
74	44288	2.7	0
74	44288	2.8	0
74	44288	2.9	0
74	44288	3	0
74	44288	3.1	0
74	44288	3.2	0
74	44288	3.3	0
74	44288	3.4	0
74	44288	3.5	0
74	44288	3.6	0
74	44288	3.7	0
74	44288	3.8	0
74	44288	3.9	0
74	44288	4	0
74	44288	4.1	0
74	44288	4.2	0
74	44288	4.3	0
74	44288	4.4	0
74	44288	4.5	0
74	44288	4.6	0
74	44288	4.7	0
74	44288	4.8	0
74	44288	4.9	0
74	44288	5	0
74	44288	5.1	0
74	44288	5.2	0
74	44288	5.3	0
74	44288	5.4	0
74	44288	5.5	0
74	44288	5.6	0
74	44288	5.7	0
74	44288	5.8	0
74	44288	5.9	0
74	44288	6	0
74	44288	6.1	0
74	44288	6.2	0
74	44288	6.3	0
74	44288	6.4	0
74	44288	6.5	0
74	44288	6.6	0
74	44288	6.7	0
74	44288	6.8	0
74	44288	6.9	0
74	44288	7	0
74	44288	7.1	0
74	44288	7.2	0
74	44288	7.3	0
74	44288	7.4	0
74	44288	7.5	0
74	44288	7.6	0
74	44288	7.7	0
74	44288	7.8	0
74	44288	7.9	0
74	44288	8	0
74	44288	8.1	0
74	44288	8.2	0
74	44288	8.3	0
74	44288	8.4	0
74	44288	8.5	0
74	44288	8.6	0
74	44288	8.7	0
74	44288	8.8	0
74	44288	8.9	0
74	44288	9	0
74	44288	9.1	0
74	44288	9.2	0
74	44288	9.3	0
74	44288	9.4	0
74	44288	9.5	0
74	44288	9.6	0
74	44288	9.7	0
74	44288	9.8	0
74	44288	9.9	0
74	44288	10	0
74	44288	10.1	0
74	44288	10.2	0
74	44288	10.3	0
74	44288	10.4	0
74	44288	10.5	0
74	44288	10.6	0
74	44288	10.7	0
74	44288	10.8	0
74	44288	10.9	0
74	44288	11	0
74	44288	11.1	0
74	44288	11.2	0
74	44288	11.3	0
74	44288	11.4	0
74	44288	11.5	0
74	44288	11.6	0
74	44288	11.7	0
74	44288	11.8	0
74	44288	11.9	0
74	44288	12	0
74	44288	12.1	0
74	44288	12.2	0
74	44288	12.3	0
74	44288	12.4	0
74	44288	12.5	0
74	44288	12.6	0
74	44288	12.7	0
74	44288	12.8	0
74	44288	12.9	0
74	44288	13	0
74	44288	13.1	0
74	44288	13.2	0
74	44288	13.3	0
74	44288	13.4	0
74	44288	13.5	0
74	44288	13.6	0
74	44288	13.7	0
74	44288	13.8	0
74	44288	13.9	0
74	44288	14	0
74	44288	14.1	0
74	44288	14.2	0
74	44288	14.3	0
74	44288	14.4	0
74	44288	14.5	0
74	44288	14.6	0
74	44288	14.7	0
74	44288	14.8	0
74	44288	14.9	0
74	44288	15	0
74	44288	15.1	0
74	44288	15.2	0
74	44288	15.3	0
74	44288	15.4	0
74	44288	15.5	0
74	44288	15.6	0
74	44288	15.7	0
74	44288	15.8	0
74	44288	15.9	0
74	44288	16	0
74	44288	16.1	0
74	44288	16.2	0
74	44288	16.3	0
74	44288	16.4	0
74	44288	16.5	0
74	44288	16.6	0
74	44288	16.7	0
74	44288	16.8	0
74	44288	16.9	0
74	44288	17	0
74	44288	17.1	0
74	44288	17.2	0
74	44288	17.3	0
74	44288	17.4	0
74	44288	17.5	0
74	44288	17.6	0
74	44288	17.7	0
74	44288	17.8	0
74	44288	17.9	0
74	44288	18	0
74	44288	18.1	0
74	44288	18.2	0
74	44288	18.3	0
74	44288	18.4	0
74	44288	18.5	0
74	44288	18.6	0
74	44288	18.7	0
74	44288	18.8	0
74	44288	18.9	0
74	44288	19	0
74	44288	19.1	0
74	44288	19.2	0
74	44288	19.3	0
74	44288	19.4	0
74	44288	19.5	0
74	44288	19.6	0
74	44288	19.7	0
74	44288	19.8	0
74	44288	19.9	0
74	44288	20	0
74	44288	20.1	0
74	44288	20.2	0
74	44288	20.3	0
74	44288	20.4	0
74	44288	20.5	0
74	44288	20.6	0
74	44288	20.7	0
74	44288	20.8	0
74	44288	20.9	0
74	44288	21	0
74	44288	21.1	0
74	44288	21.2	0
74	44288	21.3	0
74	44288	21.4	0
74	44288	21.5	0
74	44288	21.6	0
74	44288	21.7	0
74	44288	21.8	0
74	44288	21.9	0
74	44288	22	0
74	44288	22.1	0
74	44288	22.2	0
74	44288	22.3	0
74	44288	22.4	0
74	44288	22.5	0
74	44288	22.6	0
74	44288	22.7	0
74	44288	22.8	0
74	44288	22.9	0
74	44288	23	0
74	44288	23.1	0
74	44288	23.2	0
74	44288	23.3	0
74	44288	23.4	0
74	44288	23.5	0
74	44288	23.6	0
74	44288	23.7	0
74	44288	23.8	0
74	44288	23.9	0
74	44288	24	0
74	44288	24.1	0
74	44288	24.2	0
74	44288	24.3	0
74	44288	24.4	0
74	44288	24.5	0
74	44288	24.6	0
74	44288	24.7	0
74	44288	24.8	0
74	44288	24.9	0
74	44288	25	0
74	44288	25.1	0
74	44288	25.2	0
74	44288	25.3	0
74	44288	25.4	0
74	44288	25.5	0
74	44288	25.6	0
74	44288	25.7	0
74	44288	25.8	0
74	44288	25.9	0
74	44288	26	0
74	44288	26.1	0
74	44288	26.2	0
74	44288	26.3	0
74	44288	26.4	0
74	44288	26.5	0
74	44288	26.6	0
74	44288	26.7	0
74	44288	26.8	0
74	44288	26.9	0
74	44288	27	0
74	44288	27.1	0
74	44288	27.2	0
74	44288	27.3	0
74	44288	27.4	0
74	44288	27.5	0
74	44288	27.6	0
74	44288	27.7	0
74	44288	27.8	0
74	44288	27.9	0
74	44288	28	0
74	44288	28.1	0
74	44288	28.2	0
74	44288	28.3	0
74	44288	28.4	0
74	44288	28.5	0
74	44288	28.6	0
74	44288	28.7	0
74	44288	28.8	0
74	44288	28.9	0
74	44288	29	0
74	44288	29.1	0
74	44288	29.2	0
74	44288	29.3	0
74	44288	29.4	0
74	44288	29.5	0
74	44288	29.6	0
74	44288	29.7	0
74	44288	29.8	0
74	44288	29.9	0
74	44288	30	0
74	44288	30.1	0
74	44288	30.2	0
74	44288	30.3	0
74	44288	30.4	0
74	44288	30.5	0
74	44288	30.6	0
74	44288	30.7	0
74	44288	30.8	0
74	44288	30.9	0
74	44288	31	0
74	44288	31.1	0
74	44288	31.2	0
74	44288	31.3	0
74	44288	31.4	0
74	44288	31.5	0
74	44288	31.6	0
74	44288	31.7	0
74	44288	31.8	0
74	44288	31.9	0
74	44288	32	0
74	44288	32.1	0
74	44288	32.2	0
74	44288	32.3	0
74	44288	32.4	0
74	44288	32.5	0
74	44288	32.6	0
74	44288	32.7	0
74	44288	32.8	0
74	44288	32.9	0
74	44288	33	0
74	44288	33.1	0
74	44288	33.2	0
74	44288	33.3	0
74	44288	33.4	0
74	44288	33.5	0
74	44288	33.6	0
74	44288	33.7	0
74	44288	33.8	0
74	44288	33.9	0
74	44288	34	0
74	44288	34.1	0
74	44288	34.2	0
74	44288	34.3	0
74	44288	34.4	0
74	44288	34.5	0
74	44288	34.6	0
74	44288	34.7	0
74	44288	34.8	0
74	44288	34.9	0
74	44288	35	0
74	44288	35.1	0
74	44288	35.2	0
74	44288	35.3	0
74	44288	35.4	0
74	44288	35.5	0
74	44288	35.6	0
74	44288	35.7	0
74	44288	35.8	0
74	44288	35.9	0
74	44288	36	0
74	44288	36.1	0
74	44288	36.2	0
74	44288	36.3	0
74	44288	36.4	0
74	44288	36.5	0
74	44288	36.6	0
74	44288	36.7	0
74	44288	36.8	0
74	44288	36.9	0
74	44288	37	0
74	44288	37.1	0
74	44288	37.2	0
74	44288	37.3	0
74	44288	37.4	0
74	44288	37.5	0
74	44288	37.6	0
74	44288	37.7	0
74	44288	37.8	0
74	44288	37.9	0
74	44288	38	0
74	44288	38.1	0
74	44288	38.2	0
74	44288	38.3	0
74	44288	38.4	0
74	44288	38.5	0
74	44288	38.6	0
74	44288	38.7	0
74	44288	38.8	0
74	44288	38.9	0
74	44288	39	0
74	44288	39.1	0
74	44288	39.2	0
74	44288	39.3	0
74	44288	39.4	0
74	44288	39.5	0
74	44288	39.6	0
74	44288	39.7	0
74	44288	39.8	0
74	44288	39.9	0
74	44288	40	0
74	44288	40.1	0
74	44288	40.2	0
74	44288	40.3	0
74	44288	40.4	0
74	44288	40.5	0
74	44288	40.6	0
74	44288	40.7	0
74	44288	40.8	0
74	44288	40.9	0
74	44288	41	0
74	44288	41.1	0
74	44288	41.2	0
74	44288	41.3	0
74	44288	41.4	0
74	44288	41.5	0
74	44288	41.6	0
74	44288	41.7	0
74	44288	41.8	0
74	44288	41.9	0
74	44288	42	0
74	44288	42.1	0
74	44288	42.2	0
74	44288	42.3	0
74	44288	42.4	0
74	44288	42.5	0
74	44288	42.6	0
74	44288	42.7	0
74	44288	42.8	0
74	44288	42.9	0
74	44288	43	0
74	44288	43.1	0
74	44288	43.2	0
74	44288	43.3	0
74	44288	43.4	0
74	44288	43.5	0
74	44288	43.6	0
74	44288	43.7	0
74	44288	43.8	0
74	44288	43.9	0
74	44288	44	0
74	44288	44.1	0
74	44288	44.2	0
74	44288	44.3	0
74	44288	44.4	0
74	44288	44.5	0
74	44288	44.6	0
74	44288	44.7	0
74	44288	44.8	0
74	44288	44.9	0
74	44288	45	0
74	44288	45.1	0
74	44288	45.2	0
74	44288	45.3	0
74	44288	45.4	0
74	44288	45.5	0
74	44288	45.6	0
74	44288	45.7	0
74	44288	45.8	0
74	44288	45.9	0
74	44288	46	0
74	44288	46.1	0
74	44288	46.2	0
74	44288	46.3	0
74	44288	46.4	0
74	44288	46.5	0
74	44288	46.6	0
74	44288	46.7	0
74	44288	46.8	0
74	44288	46.9	0
74	44288	47	0
74	44288	47.1	0
74	44288	47.2	0
74	44288	47.3	0
74	44288	47.4	0
74	44288	47.5	0
74	44288	47.6	0
74	44288	47.7	0
74	44288	47.8	0
74	44288	47.9	0
74	44288	48	0
74	44288	48.1	0
74	44288	48.2	0
74	44288	48.3	0
74	44288	48.4	0
74	44288	48.5	0
74	44288	48.6	0
74	44288	48.7	0
74	44288	48.8	0
74	44288	48.9	0
74	44288	49	0
74	44288	49.1	0
74	44288	49.2	0
74	44288	49.3	0
74	44288	49.4	0
74	44288	49.5	0
74	44288	49.6	0
74	44288	49.7	0
74	44288	49.8	0
74	44288	49.9	0
74	44288	50	0
74	44288	50.1	0
74	44288	50.2	0
74	44288	50.3	0
74	44288	50.4	0
74	44288	50.5	0
74	44288	50.6	0
74	44288	50.7	0
74	44288	50.8	0
74	44288	50.9	0
74	44288	51	0
74	44288	51.1	0
74	44288	51.2	0
74	44288	51.3	0
74	44288	51.4	0
74	44288	51.5	0
74	44288	51.6	0
74	44288	51.7	0
74	44288	51.8	0
74	44288	51.9	0
74	44288	52	0
74	44288	52.1	0
74	44288	52.2	0
74	44288	52.3	0
74	44288	52.4	0
74	44288	52.5	0
74	44288	52.6	0
74	44288	52.7	0
74	44288	52.8	0
74	44288	52.9	0
74	44288	53	0
74	44288	53.1	0
74	44288	53.2	0
74	44288	53.3	0
74	44288	53.4	0
74	44288	53.5	0
74	44288	53.6	0
74	44288	53.7	0
74	44288	53.8	0
74	44288	53.9	0
74	44288	54	0
74	44288	54.1	0
74	44288	54.2	0
74	44288	54.3	0
74	44288	54.4	0
74	44288	54.5	0
74	44288	54.6	0
74	44288	54.7	0
74	44288	54.8	0
74	44288	54.9	0
74	44288	55	0
74	44288	55.1	0
74	44288	55.2	0
74	44288	55.3	0
74	44288	55.4	0
74	44288	55.5	0
74	44288	55.6	0
74	44288	55.7	0
74	44288	55.8	0
74	44288	55.9	0
74	44288	56	0
74	44288	56.1	0
74	44288	56.2	0
74	44288	56.3	0
74	44288	56.4	0
74	44288	56.5	0
74	44288	56.6	0
74	44288	56.7	0
74	44288	56.8	0
74	44288	56.9	0
74	44288	57	0
74	44288	57.1	0
74	44288	57.2	0
74	44288	57.3	0
74	44288	57.4	0
74	44288	57.5	0
74	44288	57.6	0
74	44288	57.7	0
74	44288	57.8	0
74	44288	57.9	0
74	44288	58	0
74	44288	58.1	0
74	44288	58.2	0
74	44288	58.3	0
74	44288	58.4	0
74	44288	58.5	0
74	44288	58.6	0
74	44288	58.7	0
74	44288	58.8	0
74	44288	58.9	0
74	44288	59	0
74	44288	59.1	0
74	44288	59.2	0
74	44288	59.3	0
74	44288	59.4	0
74	44288	59.5	0
74	44288	59.6	0
74	44288	59.7	0
74	44288	59.8	0
74	44288	59.9	0
74	44288	60	0
74	44288	60.1	0
74	44288	60.2	0
74	44288	60.3	0
74	44288	60.4	0
74	44288	60.5	0
74	44288	60.6	0
74	44288	60.7	0
74	44288	60.8	0
74	44288	60.9	0
74	44288	61	0
74	44288	61.1	0
74	44288	61.2	0
74	44288	61.3	0
74	44288	61.4	0
74	44288	61.5	0
74	44288	61.6	0
74	44288	61.7	0
74	44288	61.8	0
74	44288	61.9	0
74	44288	62	0
74	44288	62.1	0
74	44288	62.2	0
74	44288	62.3	0
74	44288	62.4	0
74	44288	62.5	0
74	44288	62.6	0
74	44288	62.7	0
74	44288	62.8	0
74	44288	62.9	0
74	44288	63	0
74	44288	63.1	0
74	44288	63.2	0
74	44288	63.3	0
74	44288	63.4	0
74	44288	63.5	0
74	44288	63.6	0
74	44288	63.7	0
74	44288	63.8	0
74	44288	63.9	0
74	44288	64	0
74	44288	64.1	0
74	44288	64.2	0
74	44288	64.3	0
74	44288	64.4	0
74	44288	64.5	0
74	44288	64.6	0
74	44288	64.7	0
74	44288	64.8	0
74	44288	64.9	0
74	44288	65	0
74	44288	65.1	0
74	44288	65.2	0
74	44288	65.3	0
74	44288	65.4	0
74	44288	65.5	0
74	44288	65.6	0
74	44288	65.7	0
74	44288	65.8	0
74	44288	65.9	0
74	44288	66	0
74	44288	66.1	0
74	44288	66.2	0
74	44288	66.3	0
74	44288	66.4	0
74	44288	66.5	0
74	44288	66.6	0
74	44288	66.7	0
74	44288	66.8	0
74	44288	66.9	0
74	44288	67	0
74	44288	67.1	0
74	44288	67.2	0
74	44288	67.3	0
74	44288	67.4	0
74	44288	67.5	0
74	44288	67.6	0
74	44288	67.7	0
74	44288	67.8	0
74	44288	67.9	0
74	44288	68	0
74	44288	68.1	0
74	44288	68.2	0
74	44288	68.3	0
74	44288	68.4	0
74	44288	68.5	0
74	44288	68.6	0
74	44288	68.7	0
74	44288	68.8	0
74	44288	68.9	0
74	44288	69	0
74	44288	69.1	0
74	44288	69.2	0
74	44288	69.3	0
74	44288	69.4	0
74	44288	69.5	0
74	44288	69.6	0
74	44288	69.7	0
74	44288	69.8	0
74	44288	69.9	0
74	44288	70	0
74	44288	70.1	0
74	44288	70.2	0
74	44288	70.3	0
74	44288	70.4	0
74	44288	70.5	0
74	44288	70.6	0
74	44288	70.7	0
74	44288	70.8	0
74	44288	70.9	0
74	44288	71	0
74	44288	71.1	0
74	44288	71.2	0
74	44288	71.3	0
74	44288	71.4	0
74	44288	71.5	0
74	44288	71.6	0
74	44288	71.7	0
74	44288	71.8	0
74	44288	71.9	0
74	44288	72	0
74	44288	72.1	0
74	44288	72.2	0
74	44288	72.3	0
74	44288	72.4	0
74	44288	72.5	0
74	44288	72.6	0
74	44288	72.7	0
74	44288	72.8	0
74	44288	72.9	0
74	44288	73	0
74	44288	73.1	0
74	44288	73.2	0
74	44288	73.3	0
74	44288	73.4	0
74	44288	73.5	0
74	44288	73.6	0
74	44288	73.7	0
74	44288	73.8	0
74	44288	73.9	0
74	44288	74	0
74	44288	74.1	0
74	44288	74.2	0
74	44288	74.3	0
74	44288	74.4	0
74	44288	74.5	0
74	44288	74.6	0
74	44288	74.7	0
74	44288	74.8	0
74	44288	74.9	0
74	44288	75	0
74	44288	75.1	0
74	44288	75.2	0
74	44288	75.3	0
74	44288	75.4	0
74	44288	75.5	0
74	44288	75.6	0
74	44288	75.7	0
74	44288	75.8	0
74	44288	75.9	0
74	44288	76	0
74	44288	76.1	0
74	44288	76.2	0
74	44288	76.3	0
74	44288	76.4	0
74	44288	76.5	0
74	44288	76.6	0
74	44288	76.7	0
74	44288	76.8	0
74	44288	76.9	0
74	44288	77	0
74	44288	77.1	0
74	44288	77.2	0
74	44288	77.3	0
74	44288	77.4	0
74	44288	77.5	0
74	44288	77.6	0
74	44288	77.7	0
74	44288	77.8	0
74	44288	77.9	0
74	44288	78	0
74	44288	78.1	0
74	44288	78.2	0
74	44288	78.3	0
74	44288	78.4	0
74	44288	78.5	0
74	44288	78.6	0
74	44288	78.7	0
74	44288	78.8	0
74	44288	78.9	0
74	44288	79	0
74	44288	79.1	0
74	44288	79.2	0
74	44288	79.3	0
74	44288	79.4	0
74	44288	79.5	0
74	44288	79.6	0
74	44288	79.7	0
74	44288	79.8	0
74	44288	79.9	0
74	44288	80	0
74	44288	80.1	0
74	44288	80.2	0
74	44288	80.3	0
74	44288	80.4	0
74	44288	80.5	0
74	44288	80.6	0
74	44288	80.7	0
74	44288	80.8	0
74	44288	80.9	0
74	44288	81	0
74	44288	81.1	0
74	44288	81.2	0
74	44288	81.3	0
74	44288	81.4	0
74	44288	81.5	0
74	44288	81.6	0
74	44288	81.7	0
74	44288	81.8	0
74	44288	81.9	0
74	44288	82	0
74	44288	82.1	0
74	44288	82.2	0
74	44288	82.3	0
74	44288	82.4	0
74	44288	82.401516	0

