version 3
run Comunic-1-20240522-16:30:16-5640
attr configname Comunic
attr datetime 20240522-16:30:16
attr datetimef 20240522-163016
attr experiment Comunic
attr inifile omnetpp.ini
attr iterationvars "$pathlosstype=\"TwoRayInterference\""
attr iterationvarsd pathlosstype=TwoRayInterference
attr iterationvarsf pathlosstype=TwoRayInterference-
attr measurement "$pathlosstype=\"TwoRayInterference\""
attr network Network
attr processid 5640
attr repetition 0
attr replication #0
attr resultdir results
attr runnumber 1
attr seedset 1
itervar pathlosstype "\"TwoRayInterference\""
config image-path ../../omnetpp-6.0.3/samples/inet4.5/images
config network Network
config **.bitrate 1Mbps
config *.*.wlan[*].mac.dcf.channelAccess.contention.initialChannelBusy false
config **.configurator.config "xmldoc(\"configurator.xml\")"
config *.source.app[0].typename UdpSink
config *.source.app[*].localPort 1000
config *.*.numApps 1
config *.*.app[0].typename UdpBasicApp
config *.*.app[*].destAddresses "\"source\""
config *.*.app[*].destPort 1000
config *.*.app[*].localPort 1000
config *.*.app[*].messageLength 1000Byte
config *.*.app[*].sendInterval 100ms
config *.*.app[*].startTime 0ms
config *.destination.mobility.typename StationaryMobility
config *.destination.mobility.mobilityStateChanged.vector-recording true
config *.destination.mobility.record.vector-recording true
config *.destination.mobility.initialX 100m
config *.destination.mobility.initialY 100m
config *.destination.mobility.initialZ 0.17m
config *.source.mobility.typename LinearMobility
config *.source.mobility.initialX 100m
config *.source.mobility.initialY 100m
config *.source.mobility.initialZ 5m
config *.source.mobility.initialMovementHeading 0deg
config *.source.mobility.initialMovementElevation 0deg
config *.source.mobility.speed 1mps
config *.*.wlan[*].radio.transmitter.power 6.35dBm
config *.*.wlan[*].radio.centerFrequency 2.400937GHz
config *.*.wlan[*].radio.*.sensitivity -85dBm
config *.*.wlan[*].radio.antenna.typename DipoleAntenna
config *.*.wlan[*].radio.antenna.length 0.05m
config *.*.wlan[*].radio.antenna.maxGain "1.97 dB"
config *.*.wlan[*].radio.antenna.minGain "-90 dB"
config *.*.wlan[*].radio.antenna.lambda 0.125437811m
config *.*.wlan[*].radio.antenna.wireAxis "\"x\""
config *.radioMedium.backgroundNoise.typename IsotropicScalarBackgroundNoise
config *.radioMedium.backgroundNoise.power "-150 dBm"
config *.radioMedium.pathLoss.typename TwoRayInterference
config *.radioMedium.recordCommunicationLog true
config *.visualizer.*.radioVisualizer.displayRadios true
config *.visualizer.*.radioVisualizer.displayAntennaLobes true
config *.visualizer.*.mediumVisualizer.signalPropagationAnimationSpeed 0.000001
config *.visualizer.*.mediumVisualizer.signalTransmissionAnimationSpeed 0.0001
config *.visualizer.*.mediumVisualizer.displaySignals true
config *.visualizer.*.mediumVisualizer.displaySignalDepartures true
config *.visualizer.*.mediumVisualizer.displaySignalArrivals true
config record-eventlog true
config **.arp.typename GlobalArp
config *.visualizer.osgVisualizer.typename IntegratedOsgVisualizer
config *.visualizer.osgVisualizer.sceneVisualizer.typename SceneOsgEarthVisualizer
config *.visualizer.osgVisualizer.sceneVisualizer.mapFile "\"map.earth\""
config *.visualizer.osgVisualizer.sceneVisualizer.sceneImageSize 10000m
config *.visualizer.osgVisualizer.sceneVisualizer.axisLength 500m
config *.visualizer.osgVisualizer.sceneVisualizer.sceneMinX -200m
config *.visualizer.osgVisualizer.sceneVisualizer.sceneMinY -200m
config *.visualizer.osgVisualizer.sceneVisualizer.sceneMinZ 0m
config *.visualizer.osgVisualizer.sceneVisualizer.sceneMaxX 5000m
config *.visualizer.osgVisualizer.sceneVisualizer.sceneMaxY 5000m
config *.visualizer.osgVisualizer.sceneVisualizer.sceneMaxZ 5000m
config *.visualizer.osgVisualizer.networkNodeVisualizer.displayModuleName true
config **.constraintAreaMinX -5000m
config **.constraintAreaMinY -5000m
config **.constraintAreaMinZ -100m
config **.constraintAreaMaxX 5000m
config **.constraintAreaMaxY 5000m
config **.constraintAreaMaxZ 5000m
config *.coordinateSystem.sceneLongitude -43.270694deg
config *.coordinateSystem.sceneLatitude -22.825083deg
config *.coordinateSystem.sceneHeading 90deg
config *.physicalEnvironment.ground.typename FlatGround
config *.source.osgModel "\"3d/drone.ive.10.scale.0,0,90.rot\""
config **.mobility.initFromDisplayString false

vector 0 Network.source.wlan[0].mac.dcf frameSequenceActive:vector ETV
attr autoWarmupFilter false
attr interpolationmode sample-hold
attr recordingmode vector
attr source warmup(count(frameSequenceStarted)-count(frameSequenceFinished))
attr title "frame sequence active"
vector 1 Network.source.wlan[0].mac.dcf.channelAccess.pendingQueue queueLength:vector ETV
attr autoWarmupFilter false
attr interpolationmode sample-hold
attr recordingmode vector
attr source "warmup(atomic(constant0(packetPushEnded) + count(packetPushStarted) - count(packetPulled) - count(packetRemoved) - count(packetDropped)))"
attr title "queue length"
attr unit pk
vector 2 Network.source.wlan[0].mac.dcf.channelAccess.pendingQueue queueBitLength:vector ETV
attr autoWarmupFilter false
attr interpolationmode sample-hold
attr recordingmode vector
attr source "warmup(atomic(constant0(packetPushEnded) + sum(packetLength(packetPushStarted)) - sum(packetLength(packetPulled)) - sum(packetLength(packetRemoved)) - sum(packetLength(packetDropped))))"
attr title "queue bit length"
attr unit b
vector 3 Network.source.wlan[0].mac.dcf.channelAccess.inProgressFrames queueLength:vector ETV
attr autoWarmupFilter false
attr interpolationmode sample-hold
attr recordingmode vector
attr source "warmup(count(packetEnqueued) - count(packetDequeued))"
attr title "queue length"
vector 4 Network.source.wlan[0].mac.dcf.channelAccess.contention backoffActive:vector ETV
attr autoWarmupFilter false
attr interpolationmode sample-hold
attr recordingmode vector
attr source warmup(count(backoffStarted)-count(backoffStopped))
attr title "backoff active"
vector 5 Network.source.udp passedUpPk:vector(count) ETV
attr interpolationmode none
attr recordingmode vector(count)
attr source packetSentToUpper
attr title "packets passed up, count"
vector 6 Network.source.udp droppedPkWrongPort:vector(count) ETV
attr interpolationmode none
attr recordingmode vector(count)
attr source packetDropReasonIsNoPortFound(packetDropped)
attr title "packets dropped (wrong port), count"
vector 7 Network.source.udp droppedPkBadChecksum:vector(count) ETV
attr interpolationmode none
attr recordingmode vector(count)
attr source packetDropReasonIsIncorrectlyReceived(packetDropped)
attr title "packets dropped (checksum error), count"
vector 8 Network.destination.wlan[0].mac.dcf frameSequenceActive:vector ETV
attr autoWarmupFilter false
attr interpolationmode sample-hold
attr recordingmode vector
attr source warmup(count(frameSequenceStarted)-count(frameSequenceFinished))
attr title "frame sequence active"
vector 9 Network.destination.wlan[0].mac.dcf.channelAccess.pendingQueue queueLength:vector ETV
attr autoWarmupFilter false
attr interpolationmode sample-hold
attr recordingmode vector
attr source "warmup(atomic(constant0(packetPushEnded) + count(packetPushStarted) - count(packetPulled) - count(packetRemoved) - count(packetDropped)))"
attr title "queue length"
attr unit pk
vector 10 Network.destination.wlan[0].mac.dcf.channelAccess.pendingQueue queueBitLength:vector ETV
attr autoWarmupFilter false
attr interpolationmode sample-hold
attr recordingmode vector
attr source "warmup(atomic(constant0(packetPushEnded) + sum(packetLength(packetPushStarted)) - sum(packetLength(packetPulled)) - sum(packetLength(packetRemoved)) - sum(packetLength(packetDropped))))"
attr title "queue bit length"
attr unit b
vector 11 Network.destination.wlan[0].mac.dcf.channelAccess.inProgressFrames queueLength:vector ETV
attr autoWarmupFilter false
attr interpolationmode sample-hold
attr recordingmode vector
attr source "warmup(count(packetEnqueued) - count(packetDequeued))"
attr title "queue length"
vector 12 Network.destination.wlan[0].mac.dcf.channelAccess.contention backoffActive:vector ETV
attr autoWarmupFilter false
attr interpolationmode sample-hold
attr recordingmode vector
attr source warmup(count(backoffStarted)-count(backoffStopped))
attr title "backoff active"
vector 13 Network.destination.udp passedUpPk:vector(count) ETV
attr interpolationmode none
attr recordingmode vector(count)
attr source packetSentToUpper
attr title "packets passed up, count"
vector 14 Network.destination.udp droppedPkWrongPort:vector(count) ETV
attr interpolationmode none
attr recordingmode vector(count)
attr source packetDropReasonIsNoPortFound(packetDropped)
attr title "packets dropped (wrong port), count"
vector 15 Network.destination.udp droppedPkBadChecksum:vector(count) ETV
attr interpolationmode none
attr recordingmode vector(count)
attr source packetDropReasonIsIncorrectlyReceived(packetDropped)
attr title "packets dropped (checksum error), count"
vector 16 Network.source.wlan[0].radio radioMode:vector ETV
attr interpolationmode sample-hold
attr recordingmode vector
attr source radioModeChanged
attr title "Radio mode"
vector 17 Network.source.wlan[0].radio radioChannel:vector ETV
attr interpolationmode sample-hold
attr recordingmode vector
attr source radioChannelChanged
attr title "Radio channel"
vector 18 Network.destination.wlan[0].radio radioMode:vector ETV
attr interpolationmode sample-hold
attr recordingmode vector
attr source radioModeChanged
attr title "Radio mode"
vector 19 Network.destination.wlan[0].radio radioChannel:vector ETV
attr interpolationmode sample-hold
attr recordingmode vector
attr source radioChannelChanged
attr title "Radio channel"
vector 20 Network.source.wlan[0].radio receptionState:vector ETV
attr interpolationmode sample-hold
attr recordingmode vector
attr source receptionStateChanged
attr title "Radio reception state"
vector 21 Network.source.wlan[0].mac.dcf.channelAccess.contention stateChanged:vector ETV
attr enum IDLE,DEFER,IFS_AND_BACKOFF
attr interpolationmode none
attr recordingmode vector
attr title "contention state changed"
attr type enum
vector 22 Network.destination.wlan[0].radio receptionState:vector ETV
attr interpolationmode sample-hold
attr recordingmode vector
attr source receptionStateChanged
attr title "Radio reception state"
vector 23 Network.destination.wlan[0].mac.dcf.channelAccess.contention stateChanged:vector ETV
attr enum IDLE,DEFER,IFS_AND_BACKOFF
attr interpolationmode none
attr recordingmode vector
attr title "contention state changed"
attr type enum
vector 24 Network.source.wlan[0].mac.dcf.recoveryProcedure contentionWindowChanged:vector ETV
attr interpolationmode sample-hold
attr recordingmode vector
attr title "contention window"
vector 25 Network.destination.wlan[0].mac.dcf.recoveryProcedure contentionWindowChanged:vector ETV
attr interpolationmode sample-hold
attr recordingmode vector
attr title "contention window"
vector 26 Network.destination.app[0] packetSent:vector(packetBytes) ETV
attr interpolationmode none
attr recordingmode vector(packetBytes)
attr source packetSent
attr title "packets sent, packetBytes"
vector 27 Network.destination.udp packetSent:vector(packetBytes) ETV
attr interpolationmode none
attr recordingmode vector(packetBytes)
attr source packetSent
attr title "packets sent, packetBytes"
vector 28 Network.destination.wlan[0].mac packetReceivedFromUpper:vector(packetBytes) ETV
attr interpolationmode none
attr recordingmode vector(packetBytes)
attr title "packets received from upper layer, packetBytes"
vector 29 Network.destination.wlan[0].mac.dcf.channelAccess.pendingQueue incomingPacketLengths:vector ETV
attr interpolationmode none
attr recordingmode vector
attr source packetLength(packetPushStarted)
attr title "incoming packet lengths"
attr unit b
vector 30 Network.destination.wlan[0].mac.dcf.channelAccess.contention backoffPeriodGenerated:vector ETV
attr interpolationmode none
attr recordingmode vector
attr title "backoff periods"
vector 31 Network.destination.wlan[0].mac.dcf.channelAccess.pendingQueue queueingTime:vector ETV
attr interpolationmode none
attr recordingmode vector
attr source queueingTime(packetPulled)
attr title "queueing times"
attr unit s
vector 32 Network.destination.wlan[0].mac.dcf.channelAccess.pendingQueue outgoingPacketLengths:vector ETV
attr interpolationmode none
attr recordingmode vector
attr source packetLength(packetPulled)
attr title "outgoing packet lengths"
attr unit b
vector 33 Network.destination.wlan[0].mac.dcf datarateSelected:vector ETV
attr interpolationmode none
attr recordingmode vector
attr title "datarates selected"
vector 34 Network.destination.wlan[0].mac packetSentToLower:vector(packetBytes) ETV
attr interpolationmode none
attr recordingmode vector(packetBytes)
attr title "packets sent to lower layer, packetBytes"
vector 35 Network.destination.wlan[0].radio transmissionState:vector ETV
attr interpolationmode sample-hold
attr recordingmode vector
attr source transmissionStateChanged
attr title "Radio transmission state"
vector 36 Network receptionPower:vector ETV
attr recordingmode vector
attr source receptionMinSignalPower(radioMedium.signalArrivalStarted)
vector 37 Network.destination.wlan[0].mac.dcf packetSentToPeer:vector(packetBytes) ETV
attr interpolationmode none
attr recordingmode vector(packetBytes)
attr title "packets sent, packetBytes"
vector 38 Network.destination.wlan[0].mac.dcf packetSentToPeerUnicast:vector(packetBytes) ETV
attr interpolationmode none
attr recordingmode vector(packetBytes)
attr source ieee80211Unicast(packetSentToPeer)
attr title "packets sent: unicast, packetBytes"
vector 39 Network.destination.wlan[0].mac.dcf packetSentToPeerWithoutRetry:vector(packetBytes) ETV
attr interpolationmode none
attr recordingmode vector(packetBytes)
attr source ieee80211NotRetry(packetSentToPeer)
attr title "packets sent: without retry, packetBytes"
vector 40 Network.destination.wlan[0].mac.rx nav:vector ETV
attr interpolationmode linear
attr recordingmode vector
attr source navChanged
attr title "network allocation vector"
vector 41 Network.source.wlan[0].mac packetReceivedFromLower:vector(packetBytes) ETV
attr interpolationmode none
attr recordingmode vector(packetBytes)
attr title "packets received from lower layer, packetBytes"
vector 42 Network.source.wlan[0].mac.dcf packetReceivedFromPeer:vector(packetBytes) ETV
attr interpolationmode none
attr recordingmode vector(packetBytes)
attr title "packets received, packetBytes"
vector 43 Network.source.wlan[0].mac.dcf packetReceivedFromPeerUnicast:vector(packetBytes) ETV
attr interpolationmode none
attr recordingmode vector(packetBytes)
attr source ieee80211Unicast(packetReceivedFromPeer)
attr title "packets received: unicast, packetBytes"
vector 44 Network.source.wlan[0].mac.dcf packetReceivedFromPeerWithoutRetry:vector(packetBytes) ETV
attr interpolationmode none
attr recordingmode vector(packetBytes)
attr source ieee80211NotRetry(packetReceivedFromPeer)
attr title "packets received: without retry, packetBytes"
vector 45 Network.source.wlan[0].mac.dcf datarateSelected:vector ETV
attr interpolationmode none
attr recordingmode vector
attr title "datarates selected"
vector 46 Network.source.wlan[0].mac packetSentToUpper:vector(packetBytes) ETV
attr interpolationmode none
attr recordingmode vector(packetBytes)
attr title "packets sent to upper layer, packetBytes"
vector 47 Network.source.udp packetReceived:vector(packetBytes) ETV
attr interpolationmode none
attr recordingmode vector(packetBytes)
attr source packetReceived
attr title "packets received, packetBytes"
vector 48 Network.source.app[0] packetReceived:vector(packetBytes) ETV
attr interpolationmode none
attr recordingmode vector(packetBytes)
attr source packetReceived
attr title "packets received, packetBytes"
vector 49 Network.source.app[0] endToEndDelay:vector ETV
attr interpolationmode none
attr recordingmode vector
attr source dataAge(packetReceived)
attr title "end-to-end delay"
attr unit s
vector 50 Network.source.app[0] rcvdPkSeqNo:vector ETV
attr interpolationmode none
attr recordingmode vector
attr source appPkSeqNo(packetReceived)
attr title "received packet sequence number"
vector 51 Network.source.wlan[0].mac packetSentToLower:vector(packetBytes) ETV
attr interpolationmode none
attr recordingmode vector(packetBytes)
attr title "packets sent to lower layer, packetBytes"
vector 52 Network.source.wlan[0].radio transmissionState:vector ETV
attr interpolationmode sample-hold
attr recordingmode vector
attr source transmissionStateChanged
attr title "Radio transmission state"
vector 53 Network.source.wlan[0].mac.dcf packetSentToPeer:vector(packetBytes) ETV
attr interpolationmode none
attr recordingmode vector(packetBytes)
attr title "packets sent, packetBytes"
vector 54 Network.source.wlan[0].mac.dcf packetSentToPeerUnicast:vector(packetBytes) ETV
attr interpolationmode none
attr recordingmode vector(packetBytes)
attr source ieee80211Unicast(packetSentToPeer)
attr title "packets sent: unicast, packetBytes"
vector 55 Network.source.wlan[0].mac.dcf packetSentToPeerWithoutRetry:vector(packetBytes) ETV
attr interpolationmode none
attr recordingmode vector(packetBytes)
attr source ieee80211NotRetry(packetSentToPeer)
attr title "packets sent: without retry, packetBytes"
vector 56 Network.destination.wlan[0].mac packetReceivedFromLower:vector(packetBytes) ETV
attr interpolationmode none
attr recordingmode vector(packetBytes)
attr title "packets received from lower layer, packetBytes"
vector 57 Network.destination.wlan[0].mac.dcf packetReceivedFromPeer:vector(packetBytes) ETV
attr interpolationmode none
attr recordingmode vector(packetBytes)
attr title "packets received, packetBytes"
vector 58 Network.destination.wlan[0].mac.dcf packetReceivedFromPeerUnicast:vector(packetBytes) ETV
attr interpolationmode none
attr recordingmode vector(packetBytes)
attr source ieee80211Unicast(packetReceivedFromPeer)
attr title "packets received: unicast, packetBytes"
vector 59 Network.destination.wlan[0].mac.dcf packetReceivedFromPeerWithoutRetry:vector(packetBytes) ETV
attr interpolationmode none
attr recordingmode vector(packetBytes)
attr source ieee80211NotRetry(packetReceivedFromPeer)
attr title "packets received: without retry, packetBytes"
vector 60 Network.destination.wlan[0].mac.dcf.channelAccess.inProgressFrames queueingTime:vector ETV
attr interpolationmode none
attr recordingmode vector
attr source queueingTime(packetDequeued)
attr title "queueing times"
vector 61 Network.destination.wlan[0].mac.dcf.channelAccess.pendingQueue incomingDataRate:vector ETV
attr interpolationmode linear
attr recordingmode vector
attr source throughput(packetPushStarted)
attr title "incoming datarate"
attr unit bps
vector 62 Network.destination.wlan[0].mac.dcf.channelAccess.pendingQueue outgoingDataRate:vector ETV
attr interpolationmode linear
attr recordingmode vector
attr source throughput(packetPulled)
attr title "outgoing datarate"
attr unit bps
vector 63 Network.source.app[0] throughput:vector ETV
attr recordingmode vector
attr source throughput(packetReceived)
attr title throughput
attr unit bps
vector 64 Network.destination.wlan[0].mac.dcf packetSentToPeerWithRetry:vector(packetBytes) ETV
attr interpolationmode none
attr recordingmode vector(packetBytes)
attr source ieee80211Retry(packetSentToPeer)
attr title "packets sent: with retry, packetBytes"
vector 65 Network.destination.wlan[0].mac.dcf packetDrop:vector(packetBytes) ETV
attr interpolationmode none
attr recordingmode vector(packetBytes)
attr source packetDropped
attr title "packet drops, packetBytes"
vector 66 Network.destination.wlan[0].mac.dcf packetDropRetryLimitReached:vector(packetBytes) ETV
attr interpolationmode none
attr recordingmode vector(packetBytes)
attr source packetDropReasonIsRetryLimitReached(packetDropped)
attr title "packet drops: retry limit reached, packetBytes"
vector 67 Network.destination.wlan[0].mac packetDrop:vector(packetBytes) ETV
attr interpolationmode none
attr recordingmode vector(packetBytes)
attr source packetDropped
attr title "packet drops, packetBytes"
vector 68 Network.destination.wlan[0].mac packetDropRetryLimitReached:vector(packetBytes) ETV
attr interpolationmode none
attr recordingmode vector(packetBytes)
attr source packetDropReasonIsRetryLimitReached(packetDropped)
attr title "packet drops: retry limit reached, packetBytes"
vector 69 Network.destination.wlan[0].mac.dcf.channelAccess.pendingQueue droppedPacketLengthsQueueOverflow:vector ETV
attr interpolationmode none
attr recordingmode vector
attr source packetLength(packetDropReasonIsQueueOverflow(packetDropped))
attr title "dropped packet lengths: queue overflow"
attr unit b
vector 70 Network.destination.wlan[0].mac.dcf packetDropQueueOverflow:vector(packetBytes) ETV
attr interpolationmode none
attr recordingmode vector(packetBytes)
attr source packetDropReasonIsQueueOverflow(packetDropped)
attr title "packet drops: queue overflow, packetBytes"
vector 71 Network.destination.wlan[0].mac packetDropQueueOverflow:vector(packetBytes) ETV
attr interpolationmode none
attr recordingmode vector(packetBytes)
attr source packetDropReasonIsQueueOverflow(packetDropped)
attr title "packet drops: queue overflow, packetBytes"
0	0	0	0
0	0	0	0
1	0	0	0
1	0	0	0
1	0	0	0
1	0	0	0
1	0	0	0
2	0	0	0
2	0	0	0
2	0	0	0
2	0	0	0
2	0	0	0
3	0	0	0
3	0	0	0
4	0	0	0
4	0	0	0
5	0	0	0
5	21	0.008704016111	1
5	52	0.108704016115	2
5	83	0.208704016125	3
5	114	0.308704016142	4
5	145	0.408704016166	5
5	176	0.508704016197	6
5	207	0.608704016235	7
5	238	0.708704016279	8
5	269	0.808704016331	9
5	300	0.908704016388	10
5	331	1.008704016453	11
5	362	1.108704016524	12
5	393	1.208704016601	13
5	424	1.308704016685	14
5	455	1.408704016774	15
5	486	1.50870401687	16
5	517	1.608704016972	17
5	548	1.70870401708	18
5	579	1.808704017194	19
5	610	1.908704017313	20
5	641	2.008704017438	21
5	672	2.108704017568	22
5	703	2.208704017704	23
5	734	2.308704017845	24
5	765	2.40870401799	25
5	796	2.508704018141	26
5	827	2.608704018297	27
5	858	2.708704018458	28
5	889	2.808704018623	29
5	920	2.908704018792	30
5	951	3.008704018966	31
5	982	3.108704019144	32
5	1013	3.208704019326	33
5	1044	3.308704019512	34
5	1075	3.408704019703	35
5	1106	3.508704019896	36
5	1137	3.608704020094	37
5	1168	3.708704020295	38
5	1199	3.8087040205	39
5	1230	3.908704020708	40
5	1261	4.008704020919	41
5	1292	4.108704021133	42
5	1323	4.20870402135	43
5	1354	4.308704021571	44
5	1385	4.408704021794	45
5	1416	4.50870402202	46
5	1447	4.608704022249	47
5	1478	4.70870402248	48
5	1509	4.808704022714	49
5	1540	4.90870402295	50
5	1571	5.008704023189	51
5	1602	5.10870402343	52
5	1633	5.208704023673	53
5	1664	5.308704023919	54
5	1695	5.408704024166	55
5	1726	5.508704024416	56
5	1757	5.608704024668	57
5	1788	5.708704024921	58
5	1819	5.808704025177	59
5	1850	5.908704025434	60
5	1881	6.008704025693	61
5	1912	6.108704025954	62
5	1943	6.208704026216	63
5	1974	6.30870402648	64
5	2005	6.408704026745	65
5	2036	6.508704027012	66
5	2067	6.608704027281	67
5	2098	6.708704027551	68
5	2129	6.808704027822	69
5	2160	6.908704028095	70
5	2191	7.008704028368	71
5	2222	7.108704028644	72
5	2253	7.20870402892	73
5	2284	7.308704029198	74
5	2315	7.408704029476	75
5	2346	7.508704029756	76
5	2377	7.608704030037	77
5	2408	7.708704030319	78
5	2439	7.808704030602	79
5	2470	7.908704030886	80
5	2501	8.008704031172	81
5	2532	8.108704031458	82
5	2563	8.208704031745	83
5	2594	8.308704032032	84
5	2625	8.408704032321	85
5	2656	8.508704032611	86
5	2687	8.608704032901	87
5	2718	8.708704033192	88
5	2749	8.808704033484	89
5	2780	8.908704033777	90
5	2811	9.008704034071	91
5	2842	9.108704034365	92
5	2873	9.20870403466	93
5	2904	9.308704034956	94
5	2935	9.408704035252	95
5	2966	9.508704035549	96
5	2997	9.608704035847	97
5	3028	9.708704036145	98
5	3059	9.808704036444	99
5	3090	9.908704036743	100
5	3121	10.008704037043	101
5	3152	10.108704037344	102
5	3183	10.208704037645	103
5	3214	10.308704037947	104
5	3245	10.408704038249	105
5	3276	10.508704038552	106
5	3307	10.608704038855	107
5	3338	10.708704039159	108
5	3369	10.808704039463	109
5	3400	10.908704039768	110
5	3431	11.008704040073	111
5	3462	11.108704040379	112
5	3493	11.208704040685	113
5	3524	11.308704040992	114
5	3555	11.408704041299	115
5	3586	11.508704041606	116
5	3617	11.608704041914	117
5	3648	11.708704042222	118
5	3679	11.80870404253	119
5	3710	11.908704042839	120
5	3741	12.008704043148	121
5	3772	12.108704043458	122
5	3803	12.208704043768	123
5	3834	12.308704044078	124
5	3865	12.408704044389	125
5	3896	12.5087040447	126
5	3927	12.608704045011	127
5	3958	12.708704045323	128
5	3989	12.808704045635	129
5	4020	12.908704045947	130
5	4051	13.00870404626	131
5	4082	13.108704046572	132
5	4113	13.208704046886	133
5	4144	13.308704047199	134
5	4175	13.408704047513	135
5	4206	13.508704047826	136
5	4237	13.608704048141	137
5	4268	13.708704048455	138
5	4299	13.80870404877	139
5	4330	13.908704049085	140
5	4361	14.0087040494	141
5	4392	14.108704049715	142
5	4423	14.208704050031	143
5	4454	14.308704050347	144
5	4485	14.408704050663	145
5	4516	14.50870405098	146
5	4547	14.608704051296	147
5	4578	14.708704051613	148
5	4609	14.80870405193	149
5	4640	14.908704052247	150
5	4671	15.008704052565	151
5	4702	15.108704052882	152
5	4733	15.2087040532	153
5	4764	15.308704053518	154
5	4795	15.408704053836	155
5	4826	15.508704054155	156
5	4857	15.608704054473	157
5	4888	15.708704054792	158
5	4919	15.808704055111	159
5	4950	15.90870405543	160
5	4981	16.008704055749	161
5	5012	16.108704056068	162
5	5043	16.208704056388	163
5	5074	16.308704056708	164
5	5105	16.408704057028	165
5	5136	16.508704057348	166
5	5167	16.608704057668	167
5	5198	16.708704057988	168
5	5229	16.808704058309	169
5	5260	16.908704058629	170
5	5291	17.00870405895	171
5	5322	17.108704059271	172
5	5353	17.208704059592	173
5	5384	17.308704059913	174
5	5415	17.408704060235	175
5	5446	17.508704060556	176
5	5477	17.608704060878	177
5	5508	17.7087040612	178
5	5539	17.808704061521	179
5	5570	17.908704061843	180
5	5601	18.008704062166	181
5	5632	18.108704062488	182
5	5663	18.20870406281	183
5	5694	18.308704063133	184
5	5725	18.408704063455	185
5	5756	18.508704063778	186
5	5787	18.608704064101	187
5	5818	18.708704064424	188
5	5849	18.808704064747	189
5	5880	18.90870406507	190
5	5911	19.008704065393	191
5	5942	19.108704065716	192
5	5973	19.20870406604	193
5	6004	19.308704066363	194
5	6035	19.408704066687	195
5	6066	19.508704067011	196
5	6097	19.608704067334	197
5	6128	19.708704067658	198
5	6159	19.808704067982	199
5	6190	19.908704068306	200
5	6221	20.008704068631	201
5	6252	20.108704068955	202
5	6283	20.208704069279	203
5	6314	20.308704069604	204
5	6345	20.408704069928	205
5	6376	20.508704070253	206
5	6407	20.608704070578	207
5	6438	20.708704070902	208
5	6469	20.808704071227	209
5	6500	20.908704071552	210
5	6531	21.008704071877	211
5	6562	21.108704072202	212
5	6593	21.208704072528	213
5	6624	21.308704072853	214
5	6655	21.408704073178	215
5	6686	21.508704073504	216
5	6717	21.608704073829	217
5	6748	21.708704074155	218
5	6779	21.80870407448	219
5	6810	21.908704074806	220
5	6841	22.008704075132	221
5	6872	22.108704075458	222
5	6903	22.208704075784	223
5	6934	22.30870407611	224
5	6965	22.408704076436	225
5	6996	22.508704076762	226
5	7027	22.608704077088	227
5	7058	22.708704077414	228
5	7089	22.80870407774	229
5	7120	22.908704078067	230
5	7151	23.008704078393	231
5	7182	23.10870407872	232
5	7213	23.208704079046	233
5	7244	23.308704079373	234
5	7275	23.408704079699	235
5	7306	23.508704080026	236
5	7337	23.608704080353	237
5	7368	23.70870408068	238
5	7399	23.808704081007	239
5	7430	23.908704081333	240
5	7461	24.00870408166	241
6	0	0	0
7	0	0	0
8	0	0	0
8	0	0	0
8	11	0	1
8	32	0.009018032222	0
8	42	0.1	1
8	63	0.10901803223	0
8	73	0.2	1
8	94	0.209018032251	0
8	104	0.3	1
8	125	0.309018032286	0
8	135	0.4	1
8	156	0.409018032335	0
8	166	0.5	1
8	187	0.509018032397	0
8	197	0.6	1
8	218	0.609018032474	0
8	228	0.7	1
8	249	0.709018032563	0
8	259	0.8	1
8	280	0.809018032666	0
8	290	0.9	1
8	311	0.909018032782	0
8	321	1	1
8	342	1.009018032912	0
8	352	1.1	1
8	373	1.109018033054	0
8	383	1.2	1
8	404	1.209018033209	0
8	414	1.3	1
8	435	1.309018033377	0
8	445	1.4	1
8	466	1.409018033556	0
8	476	1.5	1
8	497	1.509018033749	0
8	507	1.6	1
8	528	1.609018033953	0
8	538	1.7	1
8	559	1.70901803417	0
8	569	1.8	1
8	590	1.809018034398	0
8	600	1.9	1
8	621	1.909018034637	0
8	631	2	1
8	652	2.009018034887	0
8	662	2.1	1
8	683	2.109018035148	0
8	693	2.2	1
8	714	2.20901803542	0
8	724	2.3	1
8	745	2.309018035702	0
8	755	2.4	1
8	776	2.409018035993	0
8	786	2.5	1
8	807	2.509018036296	0
8	817	2.6	1
8	838	2.609018036608	0
8	848	2.7	1
8	869	2.70901803693	0
8	879	2.8	1
8	900	2.80901803726	0
8	910	2.9	1
8	931	2.909018037599	0
8	941	3	1
8	962	3.009018037947	0
8	972	3.1	1
8	993	3.109018038304	0
8	1003	3.2	1
8	1024	3.209018038668	0
8	1034	3.3	1
8	1055	3.309018039041	0
8	1065	3.4	1
8	1086	3.409018039422	0
8	1096	3.5	1
8	1117	3.50901803981	0
8	1127	3.6	1
8	1148	3.609018040205	0
8	1158	3.7	1
8	1179	3.709018040608	0
8	1189	3.8	1
8	1210	3.809018041018	0
8	1220	3.9	1
8	1241	3.909018041434	0
8	1251	4	1
8	1272	4.009018041856	0
8	1282	4.1	1
8	1303	4.109018042285	0
8	1313	4.2	1
8	1334	4.20901804272	0
8	1344	4.3	1
8	1365	4.309018043161	0
8	1375	4.4	1
8	1396	4.409018043608	0
8	1406	4.5	1
8	1427	4.50901804406	0
8	1437	4.6	1
8	1458	4.609018044518	0
8	1468	4.7	1
8	1489	4.70901804498	0
8	1499	4.8	1
8	1520	4.809018045448	0
8	1530	4.9	1
8	1551	4.909018045921	0
8	1561	5	1
8	1582	5.009018046399	0
8	1592	5.1	1
8	1613	5.109018046881	0
8	1623	5.2	1
8	1644	5.209018047368	0
8	1654	5.3	1
8	1675	5.309018047859	0
8	1685	5.4	1
8	1706	5.409018048354	0
8	1716	5.5	1
8	1737	5.509018048854	0
8	1747	5.6	1
8	1768	5.609018049358	0
8	1778	5.7	1
8	1799	5.709018049864	0
8	1809	5.8	1
8	1830	5.809018050376	0
8	1840	5.9	1
8	1861	5.90901805089	0
8	1871	6	1
8	1892	6.009018051409	0
8	1902	6.1	1
8	1923	6.10901805193	0
8	1933	6.2	1
8	1954	6.209018052455	0
8	1964	6.3	1
8	1985	6.309018052983	0
8	1995	6.4	1
8	2016	6.409018053513	0
8	2026	6.5	1
8	2047	6.509018054048	0
8	2057	6.6	1
8	2078	6.609018054585	0
8	2088	6.7	1
8	2109	6.709018055125	0
8	2119	6.8	1
8	2140	6.809018055668	0
8	2150	6.9	1
8	2171	6.909018056213	0
8	2181	7	1
8	2202	7.00901805676	0
8	2212	7.1	1
8	2233	7.109018057312	0
8	2243	7.2	1
8	2264	7.209018057864	0
8	2274	7.3	1
8	2295	7.30901805842	0
8	2305	7.4	1
8	2326	7.409018058977	0
8	2336	7.5	1
8	2357	7.509018059537	0
8	2367	7.6	1
8	2388	7.609018060099	0
8	2398	7.7	1
8	2419	7.709018060663	0
8	2429	7.8	1
8	2450	7.809018061229	0
8	2460	7.9	1
8	2481	7.909018061797	0
8	2491	8	1
8	2512	8.009018062368	0
8	2522	8.1	1
8	2543	8.109018062941	0
8	2553	8.2	1
8	2574	8.209018063515	0
8	2584	8.3	1
8	2605	8.30901806409	0
8	2615	8.4	1
8	2636	8.409018064667	0
8	2646	8.5	1
8	2667	8.509018065247	0
8	2677	8.6	1
8	2698	8.609018065827	0
8	2708	8.7	1
8	2729	8.70901806641	0
8	2739	8.8	1
8	2760	8.809018066994	0
8	2770	8.9	1
8	2791	8.90901806758	0
8	2801	9	1
8	2822	9.009018068167	0
8	2832	9.1	1
8	2853	9.109018068756	0
8	2863	9.2	1
8	2884	9.209018069346	0
8	2894	9.3	1
8	2915	9.309018069937	0
8	2925	9.4	1
8	2946	9.40901807053	0
8	2956	9.5	1
8	2977	9.509018071124	0
8	2987	9.6	1
8	3008	9.60901807172	0
8	3018	9.7	1
8	3039	9.709018072316	0
8	3049	9.8	1
8	3070	9.809018072914	0
8	3080	9.9	1
8	3101	9.909018073513	0
8	3111	10	1
8	3132	10.009018074113	0
8	3142	10.1	1
8	3163	10.109018074714	0
8	3173	10.2	1
8	3194	10.209018075317	0
8	3204	10.3	1
8	3225	10.30901807592	0
8	3235	10.4	1
8	3256	10.409018076525	0
8	3266	10.5	1
8	3287	10.509018077131	0
8	3297	10.6	1
8	3318	10.609018077737	0
8	3328	10.7	1
8	3349	10.709018078345	0
8	3359	10.8	1
8	3380	10.809018078953	0
8	3390	10.9	1
8	3411	10.909018079563	0
8	3421	11	1
8	3442	11.009018080173	0
8	3452	11.1	1
8	3473	11.109018080785	0
8	3483	11.2	1
8	3504	11.209018081397	0
8	3514	11.3	1
8	3535	11.30901808201	0
8	3545	11.4	1
8	3566	11.409018082624	0
8	3576	11.5	1
8	3597	11.509018083239	0
8	3607	11.6	1
8	3628	11.609018083854	0
8	3638	11.7	1
8	3659	11.709018084471	0
8	3669	11.8	1
8	3690	11.809018085087	0
8	3700	11.9	1
8	3721	11.909018085705	0
8	3731	12	1
8	3752	12.009018086323	0
8	3762	12.1	1
8	3783	12.109018086943	0
8	3793	12.2	1
8	3814	12.209018087563	0
8	3824	12.3	1
8	3845	12.309018088183	0
8	3855	12.4	1
8	3876	12.409018088805	0
8	3886	12.5	1
8	3907	12.509018089427	0
8	3917	12.6	1
8	3938	12.609018090049	0
8	3948	12.7	1
8	3969	12.709018090673	0
8	3979	12.8	1
8	4000	12.809018091297	0
8	4010	12.9	1
8	4031	12.909018091921	0
8	4041	13	1
8	4062	13.009018092547	0
8	4072	13.1	1
8	4093	13.109018093172	0
8	4103	13.2	1
8	4124	13.209018093799	0
8	4134	13.3	1
8	4155	13.309018094425	0
8	4165	13.4	1
8	4186	13.409018095053	0
8	4196	13.5	1
8	4217	13.50901809568	0
8	4227	13.6	1
8	4248	13.609018096309	0
8	4258	13.7	1
8	4279	13.709018096938	0
8	4289	13.8	1
8	4310	13.809018097567	0
8	4320	13.9	1
8	4341	13.909018098197	0
8	4351	14	1
8	4372	14.009018098828	0
8	4382	14.1	1
8	4403	14.109018099458	0
8	4413	14.2	1
8	4434	14.20901810009	0
8	4444	14.3	1
8	4465	14.309018100722	0
8	4475	14.4	1
8	4496	14.409018101354	0
8	4506	14.5	1
8	4527	14.509018101987	0
8	4537	14.6	1
8	4558	14.60901810262	0
8	4568	14.7	1
8	4589	14.709018103254	0
8	4599	14.8	1
8	4620	14.809018103888	0
8	4630	14.9	1
8	4651	14.909018104522	0
8	4661	15	1
8	4682	15.009018105157	0
8	4692	15.1	1
8	4713	15.109018105792	0
8	4723	15.2	1
8	4744	15.209018106428	0
8	4754	15.3	1
8	4775	15.309018107064	0
8	4785	15.4	1
8	4806	15.4090181077	0
8	4816	15.5	1
8	4837	15.509018108337	0
8	4847	15.6	1
8	4868	15.609018108974	0
8	4878	15.7	1
8	4899	15.709018109612	0
8	4909	15.8	1
8	4930	15.809018110249	0
8	4940	15.9	1
8	4961	15.909018110888	0
8	4971	16	1
8	4992	16.009018111526	0
8	5002	16.1	1
8	5023	16.109018112164	0
8	5033	16.2	1
8	5054	16.209018112804	0
8	5064	16.3	1
8	5085	16.309018113444	0
8	5095	16.4	1
8	5116	16.409018114084	0
8	5126	16.5	1
8	5147	16.509018114724	0
8	5157	16.6	1
8	5178	16.609018115364	0
8	5188	16.7	1
8	5209	16.709018116004	0
8	5219	16.8	1
8	5240	16.809018116646	0
8	5250	16.9	1
8	5271	16.909018117286	0
8	5281	17	1
8	5302	17.009018117928	0
8	5312	17.1	1
8	5333	17.10901811857	0
8	5343	17.2	1
8	5364	17.209018119212	0
8	5374	17.3	1
8	5395	17.309018119854	0
8	5405	17.4	1
8	5426	17.409018120498	0
8	5436	17.5	1
8	5457	17.50901812114	0
8	5467	17.6	1
8	5488	17.609018121784	0
8	5498	17.7	1
8	5519	17.709018122428	0
8	5529	17.8	1
8	5550	17.809018123071	0
8	5560	17.9	1
8	5581	17.909018123715	0
8	5591	18	1
8	5612	18.00901812436	0
8	5622	18.1	1
8	5643	18.109018125004	0
8	5653	18.2	1
8	5674	18.209018125648	0
8	5684	18.3	1
8	5705	18.309018126294	0
8	5715	18.4	1
8	5736	18.409018126938	0
8	5746	18.5	1
8	5767	18.509018127584	0
8	5777	18.6	1
8	5798	18.60901812823	0
8	5808	18.7	1
8	5829	18.709018128876	0
8	5839	18.8	1
8	5860	18.809018129522	0
8	5870	18.9	1
8	5891	18.909018130168	0
8	5901	19	1
8	5922	19.009018130814	0
8	5932	19.1	1
8	5953	19.10901813146	0
8	5963	19.2	1
8	5984	19.209018132108	0
8	5994	19.3	1
8	6015	19.309018132754	0
8	6025	19.4	1
8	6046	19.409018133402	0
8	6056	19.5	1
8	6077	19.50901813405	0
8	6087	19.6	1
8	6108	19.609018134697	0
8	6118	19.7	1
8	6139	19.709018135345	0
8	6149	19.8	1
8	6170	19.809018135993	0
8	6180	19.9	1
8	6201	19.909018136641	0
8	6211	20	1
8	6232	20.00901813729	0
8	6242	20.1	1
8	6263	20.109018137938	0
8	6273	20.2	1
8	6294	20.209018138587	0
8	6304	20.3	1
8	6325	20.309018139236	0
8	6335	20.4	1
8	6356	20.409018139885	0
8	6366	20.5	1
8	6387	20.509018140534	0
8	6397	20.6	1
8	6418	20.609018141184	0
8	6428	20.7	1
8	6449	20.709018141833	0
8	6459	20.8	1
8	6480	20.809018142483	0
8	6490	20.9	1
8	6511	20.909018143133	0
8	6521	21	1
8	6542	21.009018143783	0
8	6552	21.1	1
8	6573	21.109018144433	0
8	6583	21.2	1
8	6604	21.209018145084	0
8	6614	21.3	1
8	6635	21.309018145734	0
8	6645	21.4	1
8	6666	21.409018146385	0
8	6676	21.5	1
8	6697	21.509018147036	0
8	6707	21.6	1
8	6728	21.609018147687	0
8	6738	21.7	1
8	6759	21.709018148338	0
8	6769	21.8	1
8	6790	21.809018148989	0
8	6800	21.9	1
8	6821	21.90901814964	0
8	6831	22	1
8	6852	22.009018150292	0
8	6862	22.1	1
8	6883	22.109018150944	0
8	6893	22.2	1
8	6914	22.209018151596	0
8	6924	22.3	1
8	6945	22.309018152248	0
8	6955	22.4	1
8	6976	22.4090181529	0
8	6986	22.5	1
8	7007	22.509018153552	0
8	7017	22.6	1
8	7038	22.609018154204	0
8	7048	22.7	1
8	7069	22.709018154857	0
8	7079	22.8	1
8	7100	22.809018155509	0
8	7110	22.9	1
8	7131	22.909018156162	0
8	7141	23	1
8	7162	23.009018156815	0
8	7172	23.1	1
8	7193	23.109018157468	0
8	7203	23.2	1
8	7224	23.209018158121	0
8	7234	23.3	1
8	7255	23.309018158774	0
8	7265	23.4	1
8	7286	23.409018159427	0
8	7296	23.5	1
8	7317	23.509018160081	0
8	7327	23.6	1
8	7348	23.609018160734	0
8	7358	23.7	1
8	7379	23.709018161388	0
8	7389	23.8	1
8	7410	23.809018162042	0
8	7420	23.9	1
8	7441	23.909018162695	0
8	7451	24	1
8	7472	24.009018163349	0
8	7482	24.1	1
8	7489	24.108926	0
8	7492	24.109548	1
8	7499	24.118474	0
8	7503	24.120796	1
8	7511	24.129722	0
8	7514	24.134784	1
8	7522	24.14371	0
8	7525	24.148272	1
8	7533	24.157198	0
8	7537	24.17246	1
8	7544	24.181386	0
8	7548	24.195848	1
8	7561	24.204774	0
8	7564	24.205116	1
8	7571	24.214042	0
8	7574	24.214404	1
8	7582	24.22333	0
8	7586	24.225572	1
8	7594	24.234498	0
8	7597	24.23536	1
8	7605	24.244286	0
8	7608	24.246668	1
8	7616	24.255594	0
8	7619	24.258616	1
8	7627	24.267542	0
8	7630	24.270844	1
8	7638	24.27977	0
8	7648	24.3	1
8	7655	24.308926	0
8	7658	24.313308	1
8	7666	24.322234	0
8	7670	24.341436	1
8	7677	24.350362	0
8	7681	24.366564	1
8	7688	24.37549	0
8	7691	24.384132	1
8	7699	24.393058	0
8	7702	24.39994	1
8	7716	24.408866	0
8	7719	24.413268	1
8	7727	24.422194	0
8	7730	24.424196	1
8	7738	24.433122	0
8	7741	24.436544	1
8	7749	24.44547	0
8	7753	24.458032	1
8	7760	24.466958	0
8	7763	24.47314	1
8	7771	24.482066	0
8	7775	24.499168	1
8	7788	24.508094	0
8	7791	24.514796	1
8	7799	24.523722	0
8	7803	24.534664	1
8	7810	24.54359	0
8	7814	24.556572	1
8	7821	24.565498	0
8	7825	24.58042	1
8	7832	24.589346	0
8	7835	24.597428	1
8	7849	24.606354	0
8	7853	24.624276	1
8	7860	24.633202	0
8	7863	24.639184	1
8	7871	24.64811	0
8	7875	24.663052	1
8	7882	24.671978	0
8	7885	24.67548	1
8	7893	24.684406	0
8	7896	24.684908	1
8	7903	24.693834	0
8	7907	24.698476	1
8	7921	24.707402	0
8	7924	24.713924	1
8	7932	24.72285	0
8	7936	24.732972	1
8	7943	24.741898	0
8	7947	24.7532	1
8	7954	24.762126	0
8	7957	24.769468	1
8	7965	24.778394	0
8	7968	24.782876	1
8	7976	24.791802	0
8	7986	24.811924	1
8	7993	24.82085	0
8	7997	24.831212	1
8	8004	24.840138	0
8	8007	24.84742	1
8	8015	24.856346	0
8	8019	24.866768	1
8	8026	24.875694	0
8	8029	24.877796	1
8	8037	24.886722	0
8	8047	24.902784	1
8	8054	24.91171	0
8	8058	24.926152	1
8	8065	24.935078	0
8	8068	24.94406	1
8	8076	24.952986	0
8	8080	24.966768	1
8	8087	24.975694	0
8	8091	24.991716	1
8	8104	25.000642	0
8	8108	25.019124	1
8	8115	25.02805	0
8	8119	25.039592	1
8	8126	25.048518	0
8	8130	25.06656	1
8	8137	25.075486	0
8	8140	25.083628	1
8	8148	25.092554	0
8	8158	25.112456	1
8	8165	25.121382	0
8	8169	25.141544	1
8	8176	25.15047	0
8	8179	25.155352	1
8	8187	25.164278	0
8	8191	25.17418	1
8	8198	25.183106	0
8	8201	25.187928	1
8	8209	25.196854	0
8	8219	25.212576	1
8	8226	25.221502	0
8	8230	25.232004	1
8	8237	25.24093	0
8	8240	25.242992	1
8	8248	25.251918	0
8	8252	25.26514	1
8	8259	25.274066	0
8	8262	25.276208	1
8	8270	25.285134	0
8	8273	25.292136	1
8	8287	25.301062	0
8	8291	25.319824	1
8	8298	25.32875	0
8	8302	25.342952	1
8	8309	25.351878	0
8	8312	25.3596	1
8	8320	25.368526	0
8	8324	25.379548	1
8	8331	25.388474	0
8	8341	25.401056	1
8	8348	25.409982	0
8	8352	25.423904	1
8	8359	25.43283	0
8	8363	25.452932	1
8	8370	25.461858	0
8	8374	25.4798	1
8	8381	25.488726	0
8	8384	25.491428	1
8	8398	25.500354	0
8	8401	25.502436	1
8	8409	25.511362	0
8	8412	25.520584	1
8	8420	25.52951	0
8	8424	25.543172	1
8	8431	25.552098	0
8	8435	25.57052	1
8	8442	25.579446	0
8	8446	25.595488	1
8	8459	25.604414	0
8	8463	25.614256	1
8	8470	25.623182	0
8	8474	25.634604	1
8	8481	25.64353	0
8	8485	25.655952	1
8	8492	25.664878	0
8	8496	25.67498	1
8	8503	25.683906	0
8	8507	25.698728	1
8	8520	25.707654	0
8	8524	25.724156	1
8	8531	25.733082	0
8	8535	25.749504	1
8	8542	25.75843	0
8	8546	25.768952	1
8	8553	25.777878	0
8	8556	25.7874	1
8	8564	25.796326	0
8	8573	25.801908	1
8	8581	25.810834	0
8	8585	25.824356	1
8	8592	25.833282	0
8	8596	25.851564	1
8	8603	25.86049	0
8	8606	25.869532	1
8	8614	25.878458	0
8	8618	25.89898	1
8	8631	25.907906	0
8	8635	25.923688	1
8	8642	25.932614	0
8	8645	25.939956	1
8	8653	25.948882	0
8	8657	25.959864	1
8	8664	25.96879	0
8	8667	25.971652	1
8	8675	25.980578	0
8	8678	25.98408	1
8	8686	25.993006	0
8	8696	26.012028	1
8	8703	26.020954	0
8	8706	26.029236	1
8	8714	26.038162	0
8	8717	26.047304	1
8	8725	26.05623	0
8	8729	26.071012	1
8	8736	26.079938	0
8	8740	26.09416	1
8	8753	26.103086	0
8	8756	26.106028	1
8	8764	26.114954	0
8	8768	26.128236	1
8	8775	26.137162	0
8	8779	26.152544	1
8	8786	26.16147	0
8	8789	26.169952	1
8	8797	26.178878	0
8	8801	26.18946	1
8	8808	26.198386	0
8	8811	26.199088	1
8	8824	26.208014	0
8	8829	26.227576	1
8	8836	26.236502	0
8	8840	26.254664	1
8	8847	26.26359	0
8	8851	26.280712	1
8	8858	26.289638	0
8	8868	26.30268	1
8	8875	26.311606	0
8	8878	26.312588	1
8	8886	26.321514	0
8	8890	26.333616	1
8	8897	26.342542	0
8	8901	26.361644	1
8	8908	26.37057	0
8	8912	26.387212	1
8	8919	26.396138	0
8	8928	26.40252	1
8	8936	26.411446	0
8	8940	26.428688	1
8	8947	26.437614	0
8	8951	26.458116	1
8	8958	26.467042	0
8	8961	26.474644	1
8	8969	26.48357	0
8	8973	26.498132	1
8	8986	26.507058	0
8	8990	26.52144	1
8	8997	26.530366	0
8	9001	26.546828	1
8	9008	26.555754	0
8	9012	26.565916	1
8	9019	26.574842	0
8	9023	26.590724	1
8	9030	26.59965	0
8	9039	26.607712	1
8	9047	26.616638	0
8	9050	26.62344	1
8	9058	26.632366	0
8	9062	26.648188	1
8	9069	26.657114	0
8	9072	26.662456	1
8	9080	26.671382	0
8	9084	26.691204	1
8	9097	26.70013	0
8	9101	26.713612	1
8	9108	26.722538	0
8	9112	26.7416	1
8	9119	26.750526	0
8	9123	26.767388	1
8	9130	26.776314	0
8	9134	26.789316	1
8	9141	26.798242	0
8	9151	26.812344	1
8	9158	26.82127	0
8	9161	26.824012	1
8	9169	26.832938	0
8	9173	26.84996	1
8	9180	26.858886	0
8	9183	26.866068	1
8	9191	26.874994	0
8	9195	26.892416	1
8	9208	26.901342	0
8	9211	26.909464	1
8	9219	26.91839	0
8	9222	26.925652	1
8	9230	26.934578	0
8	9234	26.94484	1
8	9241	26.953766	0
8	9245	26.970748	1
8	9252	26.979674	0
8	9256	26.997976	1
8	9269	27.006902	0
8	9272	27.010204	1
8	9280	27.01913	0
8	9284	27.038372	1
8	9291	27.047298	0
8	9295	27.06034	1
8	9302	27.069266	0
8	9305	27.072288	1
8	9313	27.081214	0
8	9317	27.098616	1
8	9330	27.107542	0
8	9334	27.126804	1
8	9341	27.13573	0
8	9344	27.144412	1
8	9352	27.153338	0
8	9356	27.16844	1
8	9363	27.177366	0
8	9366	27.183248	1
8	9374	27.192174	0
8	9384	27.207256	1
8	9391	27.216182	0
8	9394	27.222324	1
8	9402	27.23125	0
8	9406	27.247232	1
8	9413	27.256158	0
8	9417	27.27546	1
8	9424	27.284386	0
8	9434	27.301468	1
8	9441	27.310394	0
8	9445	27.328836	1
8	9452	27.337762	0
8	9456	27.354804	1
8	9463	27.36373	0
8	9467	27.374772	1
8	9474	27.383698	0
8	9477	27.38392	1
8	9484	27.392846	0
8	9495	27.404008	1
8	9502	27.412934	0
8	9505	27.414416	1
8	9513	27.423342	0
8	9516	27.426724	1
8	9524	27.43565	0
8	9527	27.439032	1
8	9535	27.447958	0
8	9538	27.44894	1
8	9546	27.457866	0
8	9550	27.474928	1
8	9557	27.483854	0
8	9561	27.498436	1
8	9574	27.507362	0
8	9577	27.508264	1
8	9585	27.51719	0
8	9588	27.524892	1
8	9596	27.533818	0
8	9600	27.54772	1
8	9607	27.556646	0
8	9610	27.559228	1
8	9618	27.568154	0
8	9622	27.582716	1
8	9629	27.591642	0
8	9639	27.601984	1
8	9646	27.61091	0
8	9650	27.621172	1
8	9657	27.630098	0
8	9660	27.63484	1
8	9668	27.643766	0
8	9671	27.648288	1
8	9679	27.657214	0
8	9683	27.667376	1
8	9690	27.676302	0
8	9693	27.684284	1
8	9701	27.69321	0
8	9704	27.699272	1
8	9718	27.708198	0
8	9722	27.71868	1
8	9729	27.727606	0
8	9732	27.727888	1
8	9739	27.736814	0
8	9743	27.746196	1
8	9751	27.755122	0
8	9755	27.771364	1
8	9762	27.78029	0
8	9766	27.797892	1
8	9779	27.806818	0
8	9783	27.81786	1
8	9790	27.826786	0
8	9794	27.837708	1
8	9801	27.846634	0
8	9805	27.860596	1
8	9812	27.869522	0
8	9815	27.871204	1
8	9823	27.88013	0
8	9826	27.880872	1
8	9833	27.889798	0
8	9844	27.90872	1
8	9851	27.917646	0
8	9854	27.917968	1
8	9861	27.926894	0
8	9866	27.943736	1
8	9873	27.952662	0
8	9877	27.968224	1
8	9884	27.97715	0
8	9888	27.996552	1
8	9901	28.005478	0
8	9904	28.01268	1
8	9912	28.021606	0
8	9916	28.040928	1
8	9923	28.049854	0
8	9926	28.054536	1
8	9934	28.063462	0
8	9938	28.075444	1
8	9945	28.08437	0
8	9948	28.090192	1
8	9956	28.099118	0
8	9966	28.1128	1
8	9973	28.121726	0
8	9976	28.130288	1
8	9984	28.139214	0
8	9988	28.159136	1
8	9995	28.168062	0
8	9998	28.176244	1
8	10006	28.18517	0
8	10009	28.191992	1
8	10023	28.200918	0
8	10026	28.21014	1
8	10034	28.219066	0
8	10038	28.238968	1
8	10045	28.247894	0
8	10048	28.249076	1
8	10056	28.258002	0
8	10059	28.266024	1
8	10067	28.27495	0
8	10071	28.293652	1
8	10084	28.302578	0
8	10087	28.30398	1
8	10095	28.312906	0
8	10099	28.325748	1
8	10106	28.334674	0
8	10110	28.349476	1
8	10117	28.358402	0
8	10121	28.371704	1
8	10128	28.38063	0
8	10132	28.399412	1
8	10145	28.408338	0
8	10149	28.41856	1
8	10156	28.427486	0
8	10159	28.428408	1
8	10167	28.437334	0
8	10171	28.453396	1
8	10178	28.462322	0
8	10182	28.473784	1
8	10189	28.48271	0
8	10192	28.483432	1
8	10199	28.492358	0
8	10203	28.49616	1
8	10217	28.505086	0
8	10220	28.512148	1
8	10228	28.521074	0
8	10232	28.539676	1
8	10239	28.548602	0
8	10243	28.567864	1
8	10250	28.57679	0
8	10254	28.594412	1
8	10267	28.603338	0
8	10270	28.60638	1
8	10278	28.615306	0
8	10281	28.616868	1
8	10289	28.625794	0
8	10293	28.637996	1
8	10300	28.646922	0
8	10304	28.665124	1
8	10311	28.67405	0
8	10314	28.681792	1
8	10322	28.690718	0
8	10331	28.7002	1
8	10339	28.709126	0
8	10343	28.720528	1
8	10350	28.729454	0
8	10354	28.748156	1
8	10361	28.757082	0
8	10365	28.771544	1
8	10372	28.78047	0
8	10376	28.792092	1
8	10389	28.801018	0
8	10392	28.80474	1
8	10400	28.813666	0
8	10404	28.825968	1
8	10411	28.834894	0
8	10415	28.845876	1
8	10422	28.854802	0
8	10425	28.857944	1
8	10433	28.86687	0
8	10436	28.872232	1
8	10444	28.881158	0
8	10447	28.8908	1
8	10455	28.899726	0
8	10464	28.901768	1
8	10472	28.910694	0
8	10475	28.918956	1
8	10483	28.927882	0
8	10487	28.942344	1
8	10494	28.95127	0
8	10497	28.953732	1
8	10505	28.962658	0
8	10508	28.9701	1
8	10516	28.979026	0
8	10519	28.979608	1
8	10526	28.988534	0
8	10537	29.008636	1
8	10544	29.017562	0
8	10547	29.022124	1
8	10555	29.03105	0
8	10558	29.036892	1
8	10566	29.045818	0
8	10569	29.04632	1
8	10576	29.055246	0
8	10580	29.056428	1
8	10588	29.065354	0
8	10591	29.067936	1
8	10599	29.076862	0
8	10603	29.087864	1
8	10610	29.09679	0
8	10619	29.103032	1
8	10627	29.111958	0
8	10630	29.12144	1
8	10638	29.130366	0
8	10641	29.138048	1
8	10649	29.146974	0
8	10653	29.161776	1
8	10660	29.170702	0
8	10663	29.174304	1
8	10671	29.18323	0
8	10675	29.198312	1
8	10688	29.207238	0
8	10691	29.21422	1
8	10699	29.223146	0
8	10703	29.238948	1
8	10710	29.247874	0
8	10713	29.251996	1
8	10721	29.260922	0
8	10725	29.274824	1
8	10732	29.28375	0
8	10735	29.292132	1
8	10749	29.301058	0
8	10753	29.3171	1
8	10760	29.326026	0
8	10764	29.346588	1
8	10771	29.355514	0
8	10775	29.371876	1
8	10782	29.380802	0
8	10785	29.383884	1
8	10793	29.39281	0
8	10803	29.404772	1
8	10810	29.413698	0
8	10813	29.42072	1
8	10821	29.429646	0
8	10825	29.450148	1
8	10832	29.459074	0
8	10835	29.463496	1
8	10843	29.472422	0
8	10847	29.483024	1
8	10854	29.49195	0
8	10857	29.496672	1
8	10871	29.505598	0
8	10875	29.51784	1
8	10882	29.526766	0
8	10885	29.532328	1
8	10893	29.541254	0
8	10897	29.555216	1
8	10904	29.564142	0
8	10908	29.584164	1
8	10915	29.59309	0
8	10925	29.610312	1
8	10932	29.619238	0
8	10935	29.6268	1
8	10943	29.635726	0
8	10946	29.644808	1
8	10954	29.653734	0
8	10958	29.672636	1
8	10965	29.681562	0
8	10969	29.694944	1
8	10982	29.70387	0
8	10986	29.716312	1
8	10993	29.725238	0
8	10996	29.7347	1
8	11004	29.743626	0
8	11007	29.747128	1
8	11015	29.756054	0
8	11019	29.769876	1
8	11026	29.778802	0
8	11030	29.797184	1
8	11043	29.80611	0
8	11047	29.823752	1
8	11054	29.832678	0
8	11058	29.84482	1
8	11065	29.853746	0
8	11068	29.858488	1
8	11076	29.867414	0
8	11080	29.885476	1
8	11087	29.894402	0
8	11090	29.899344	1
8	11104	29.90827	0
8	11107	29.910052	1
8	11115	29.918978	0
8	11119	29.93686	1
8	11126	29.945786	0
8	11130	29.965268	1
8	11137	29.974194	0
8	11141	29.984336	1
8	11148	29.993262	0
8	11151	29.993684	1
8	11164	30.00261	0
8	11168	30.003272	1
8	11175	30.012198	0
8	11180	30.0309	1
8	11187	30.039826	0
8	11191	30.057908	1
8	11198	30.066834	0
8	11202	30.085856	1
8	11209	30.094782	0
8	11218	30.101804	1
8	11226	30.11073	0
8	11229	30.111312	1
8	11236	30.120238	0
8	11241	30.13642	1
8	11248	30.145346	0
8	11252	30.162728	1
8	11259	30.171654	0
8	11263	30.182456	1
8	11270	30.191382	0
8	11273	30.195444	1
8	11287	30.20437	0
8	11291	30.218272	1
8	11298	30.227198	0
8	11301	30.2297	1
8	11309	30.238626	0
8	11312	30.241688	1
8	11320	30.250614	0
8	11323	30.257816	1
8	11331	30.266742	0
8	11335	30.279904	1
8	11342	30.28883	0
8	11352	30.301992	1
8	11359	30.310918	0
8	11362	30.31978	1
8	11370	30.328706	0
8	11374	30.345728	1
8	11381	30.354654	0
8	11385	30.366396	1
8	11392	30.375322	0
8	11395	30.378924	1
8	11403	30.38785	0
8	11406	30.391832	1
8	11420	30.400758	0
8	11424	30.41194	1
8	11431	30.420866	0
8	11435	30.436508	1
8	11442	30.445434	0
8	11446	30.461076	1
8	11453	30.470002	0
8	11456	30.475064	1
8	11464	30.48399	0
8	11467	30.489912	1
8	11475	30.498838	0
8	11485	30.51038	1
8	11492	30.519306	0
8	11495	30.522688	1
8	11503	30.531614	0
8	11506	30.534396	1
8	11514	30.543322	0
8	11517	30.551244	1
8	11525	30.56017	0
8	11529	30.579452	1
8	11536	30.588378	0
8	11539	30.59088	1
8	11547	30.599806	0
8	11557	30.617368	1
8	11564	30.626294	0
8	11568	30.638196	1
8	11575	30.647122	0
8	11578	30.655844	1
8	11586	30.66477	0
8	11589	30.669992	1
8	11597	30.678918	0
8	11600	30.6861	1
8	11608	30.695026	0
8	11618	30.713508	1
8	11625	30.722434	0
8	11628	30.730196	1
8	11636	30.739122	0
8	11639	30.741104	1
8	11647	30.75003	0
8	11650	30.756712	1
8	11658	30.765638	0
8	11662	30.78042	1
8	11669	30.789346	0
8	11679	30.804508	1
8	11686	30.813434	0
8	11690	30.823356	1
8	11697	30.832282	0
8	11700	30.837364	1
8	11708	30.84629	0
8	11712	30.863732	1
8	11719	30.872658	0
8	11722	30.87282	1
8	11729	30.881746	0
8	11733	30.887268	1
8	11741	30.896194	0
8	11744	30.898656	1
8	11758	30.907582	0
8	11761	30.911984	1
8	11769	30.92091	0
8	11772	30.929272	1
8	11780	30.938198	0
8	11784	30.9519	1
8	11791	30.960826	0
8	11795	30.980568	1
8	11802	30.989494	0
8	11805	30.992856	1
8	11819	31.001782	0
8	11823	31.022364	1
8	11830	31.03129	0
8	11833	31.039732	1
8	11841	31.048658	0
8	11844	31.0537	1
8	11852	31.062626	0
8	11855	31.065028	1
8	11863	31.073954	0
8	11867	31.086616	1
8	11874	31.095542	0
8	11883	31.101564	1
8	11891	31.11049	0
8	11895	31.124932	1
8	11902	31.133858	0
8	11906	31.14652	1
8	11913	31.155446	0
8	11917	31.172928	1
8	11924	31.181854	0
8	11927	31.182616	1
8	11934	31.191542	0
8	11938	31.195264	1
8	11952	31.20419	0
8	11956	31.221032	1
8	11963	31.229958	0
8	11967	31.24866	1
8	11974	31.257586	0
8	11978	31.274568	1
8	11985	31.283494	0
8	11995	31.302196	1
8	12002	31.311122	0
8	12006	31.326724	1
8	12013	31.33565	0
8	12016	31.335792	1
8	12023	31.344718	0
8	12028	31.36352	1
8	12035	31.372446	0
8	12038	31.379908	1
8	12046	31.388834	0
8	12056	31.405776	1
8	12063	31.414702	0
8	12066	31.422124	1
8	12074	31.43105	0
8	12078	31.447032	1
8	12085	31.455958	0
8	12088	31.45898	1
8	12096	31.467906	0
8	12099	31.475668	1
8	12107	31.484594	0
8	12117	31.502016	1
8	12124	31.510942	0
8	12127	31.517024	1
8	12135	31.52595	0
8	12138	31.529132	1
8	12146	31.538058	0
8	12149	31.54374	1
8	12157	31.552666	0
8	12161	31.573148	1
8	12168	31.582074	0
8	12178	31.600676	1
8	12185	31.609602	0
8	12188	31.615564	1
8	12196	31.62449	0
8	12199	31.630992	1
8	12207	31.639918	0
8	12210	31.64142	1
8	12218	31.650346	0
8	12221	31.656848	1
8	12229	31.665774	0
8	12233	31.683776	1
8	12240	31.692702	0
8	12250	31.703724	1
8	12257	31.71265	0
8	12260	31.713692	1
8	12268	31.722618	0
8	12272	31.73988	1
8	12279	31.748806	0
8	12282	31.756108	1
8	12290	31.765034	0
8	12293	31.772596	1
8	12301	31.781522	0
8	12311	31.800424	1
8	12318	31.80935	0
8	12322	31.822792	1
8	12329	31.831718	0
8	12333	31.84786	1
8	12340	31.856786	0
8	12343	31.864128	1
8	12351	31.873054	0
8	12354	31.873856	1
8	12361	31.882782	0
8	12366	31.892964	1
8	12379	31.90189	0
8	12382	31.905892	1
8	12390	31.914818	0
8	12393	31.9211	1
8	12401	31.930026	0
8	12405	31.941028	1
8	12412	31.949954	0
8	12415	31.957916	1
8	12423	31.966842	0
8	12426	31.972004	1
8	12434	31.98093	0
8	12437	31.983892	1
8	12445	31.992818	0
8	12448	31.9955	1
8	12462	32.004426	0
8	12465	32.012808	1
8	12473	32.021734	0
8	12477	32.034976	1
8	12484	32.043902	0
8	12488	32.059984	1
8	12495	32.06891	0
8	12499	32.080612	1
8	12506	32.089538	0
8	12516	32.1047	1
8	12523	32.113626	0
8	12527	32.128228	1
8	12534	32.137154	0
8	12537	32.139216	1
8	12545	32.148142	0
8	12549	32.159684	1
8	12556	32.16861	0
8	12560	32.188312	1
8	12567	32.197238	0
8	12577	32.21226	1
8	12584	32.221186	0
8	12588	32.239928	1
8	12595	32.248854	0
8	12599	32.264956	1
8	12606	32.273882	0
8	12609	32.277724	1
8	12617	32.28665	0
8	12620	32.288712	1
8	12628	32.297638	0
8	12638	32.31668	1
8	12645	32.325606	0
8	12649	32.342028	1
8	12656	32.350954	0
8	12659	32.357876	1
8	12667	32.366802	0
8	12671	32.383124	1
8	12678	32.39205	0
8	12681	32.397712	1
8	12695	32.406638	0
8	12698	32.40758	1
8	12706	32.416506	0
8	12710	32.434408	1
8	12717	32.443334	0
8	12721	32.453676	1
8	12728	32.462602	0
8	12731	32.464944	1
8	12739	32.47387	0
8	12742	32.482692	1
8	12750	32.491618	0
8	12760	32.51208	1
8	12767	32.521006	0
8	12770	32.523788	1
8	12778	32.532714	0
8	12781	32.538156	1
8	12789	32.547082	0
8	12792	32.549704	1
8	12800	32.55863	0
8	12803	32.566452	1
8	12811	32.575378	0
8	12814	32.57988	1
8	12822	32.588806	0
8	12825	32.597048	1
8	12839	32.605974	0
8	12842	32.607596	1
8	12850	32.616522	0
8	12853	32.619644	1
8	12861	32.62857	0
8	12864	32.633632	1
8	12872	32.642558	0
8	12875	32.65104	1
8	12883	32.659966	0
8	12887	32.677848	1
8	12894	32.686774	0
8	12897	32.690236	1
8	12905	32.699162	0
8	12915	32.715404	1
8	12922	32.72433	0
8	12925	32.726532	1
8	12933	32.735458	0
8	12937	32.7465	1
8	12944	32.755426	0
8	12947	32.757468	1
8	12955	32.766394	0
8	12958	32.775036	1
8	12966	32.783962	0
8	12969	32.788084	1
8	12977	32.79701	0
8	12980	32.798532	1
8	12994	32.807458	0
8	12997	32.80806	1
8	13004	32.816986	0
8	13009	32.831648	1
8	13016	32.840574	0
8	13019	32.842836	1
8	13027	32.851762	0
8	13030	32.852684	1
8	13038	32.86161	0
8	13041	32.862372	1
8	13048	32.871298	0
8	13052	32.8773	1
8	13060	32.886226	0
8	13063	32.887128	1
8	13071	32.896054	0
8	13074	32.899876	1
8	13088	32.908802	0
8	13092	32.927424	1
8	13099	32.93635	0
8	13102	32.944892	1
8	13110	32.953818	0
8	13114	32.96552	1
8	13121	32.974446	0
8	13125	32.990148	1
8	13132	32.999074	0
8	13141	33.008576	1
8	13149	33.017502	0
8	13152	33.017964	1
8	13159	33.02689	0
8	13164	33.042992	1
8	13171	33.051918	0
8	13175	33.07004	1
8	13182	33.078966	0
8	13186	33.089268	1
8	13193	33.098194	0
8	13203	33.117816	1
8	13210	33.126742	0
8	13214	33.140864	1
8	13221	33.14979	0
8	13225	33.161232	1
8	13232	33.170158	0
8	13235	33.17272	1
8	13243	33.181646	0
8	13247	33.196828	1
8	13260	33.205754	0
8	13264	33.223616	1
8	13271	33.232542	0
8	13275	33.251984	1
8	13282	33.26091	0
8	13286	33.277392	1
8	13293	33.286318	0
8	13296	33.29562	1
8	13310	33.304546	0
8	13314	33.318408	1
8	13321	33.327334	0
8	13324	33.330576	1
8	13332	33.339502	0
8	13336	33.353104	1
8	13343	33.36203	0
8	13347	33.378972	1
8	13354	33.387898	0
8	13358	33.39964	1
8	13371	33.408566	0
8	13375	33.427268	1
8	13382	33.436194	0
8	13386	33.456476	1
8	13393	33.465402	0
8	13397	33.482844	1
8	13404	33.49177	0
8	13414	33.509972	1
8	13421	33.518898	0
8	13425	33.5382	1
8	13432	33.547126	0
8	13436	33.562908	1
8	13443	33.571834	0
8	13446	33.573516	1
8	13454	33.582442	0
8	13464	33.601364	1
8	13471	33.61029	0
8	13475	33.627492	1
8	13482	33.636418	0
8	13486	33.64752	1
8	13493	33.656446	0
8	13497	33.672188	1
8	13504	33.681114	0
8	13508	33.691376	1
8	13521	33.700302	0
8	13525	33.718164	1
8	13532	33.72709	0
8	13535	33.732872	1
8	13543	33.741798	0
8	13547	33.75894	1
8	13554	33.767866	0
8	13558	33.787948	1
8	13565	33.796874	0
8	13575	33.812256	1
8	13582	33.821182	0
8	13586	33.830984	1
8	13593	33.83991	0
8	13597	33.850532	1
8	13604	33.859458	0
8	13608	33.8745	1
8	13615	33.883426	0
8	13625	33.900908	1
8	13632	33.909834	0
8	13636	33.924796	1
8	13643	33.933722	0
8	13646	33.941564	1
8	13654	33.95049	0
8	13658	33.960472	1
8	13665	33.969398	0
8	13669	33.98316	1
8	13676	33.992086	0
8	13686	34.004608	1
8	13693	34.013534	0
8	13697	34.025016	1
8	13704	34.033942	0
8	13707	34.043044	1
8	13715	34.05197	0
8	13719	34.065212	1
8	13726	34.074138	0
8	13729	34.0838	1
8	13737	34.092726	0
8	13740	34.098788	1
8	13754	34.107714	0
8	13758	34.119496	1
8	13765	34.128422	0
8	13768	34.137224	1
8	13776	34.14615	0
8	13779	34.149852	1
8	13787	34.158778	0
8	13791	34.17236	1
8	13798	34.181286	0
8	13801	34.185788	1
8	13809	34.194714	0
8	13818	34.200376	1
8	13826	34.209302	0
8	13830	34.220444	1
8	13837	34.22937	0
8	13840	34.238492	1
8	13848	34.247418	0
8	13852	34.26196	1
8	13859	34.270886	0
8	13863	34.290088	1
8	13870	34.299014	0
8	13880	34.315556	1
8	13887	34.324482	0
8	13891	34.340364	1
8	13898	34.34929	0
8	13902	34.369232	1
8	13909	34.378158	0
8	13913	34.38982	1
8	13920	34.398746	0
8	13930	34.419348	1
8	13937	34.428274	0
8	13941	34.444716	1
8	13948	34.453642	0
8	13952	34.472124	1
8	13959	34.48105	0
8	13962	34.483132	1
8	13970	34.492058	0
8	13973	34.49222	1
8	13986	34.501146	0
8	13990	34.502048	1
8	13998	34.510974	0
8	14002	34.531476	1
8	14009	34.540402	0
8	14013	34.558704	1
8	14020	34.56763	0
8	14024	34.585372	1
8	14031	34.594298	0
8	14034	34.5948	1
8	14047	34.603726	0
8	14052	34.623328	1
8	14059	34.632254	0
8	14062	34.641836	1
8	14070	34.650762	0
8	14074	34.660744	1
8	14081	34.66967	0
8	14084	34.679292	1
8	14092	34.688218	0
8	14095	34.6977	1
8	14109	34.706626	0
8	14113	34.724088	1
8	14120	34.733014	0
8	14123	34.735696	1
8	14131	34.744622	0
8	14134	34.750184	1
8	14142	34.75911	0
8	14145	34.765112	1
8	14153	34.774038	0
8	14157	34.7839	1
8	14164	34.792826	0
8	14174	34.812808	1
8	14181	34.821734	0
8	14184	34.828956	1
8	14192	34.837882	0
8	14195	34.840564	1
8	14203	34.84949	0
8	14207	34.869852	1
8	14214	34.878778	0
8	14217	34.88368	1
8	14225	34.892606	0
8	14235	34.908128	1
8	14242	34.917054	0
8	14246	34.930596	1
8	14253	34.939522	0
8	14257	34.959604	1
8	14264	34.96853	0
8	14267	34.968812	1
8	14274	34.977738	0
8	14278	34.98012	1
8	14286	34.989046	0
8	14289	34.990188	1
8	14297	34.999114	0
8	14307	35.013056	1
8	14314	35.021982	0
8	14317	35.025324	1
8	14325	35.03425	0
8	14329	35.050612	1
8	14336	35.059538	0
8	14340	35.07842	1
8	14347	35.087346	0
8	14357	35.101668	1
8	14364	35.110594	0
8	14368	35.122916	1
8	14375	35.131842	0
8	14378	35.139464	1
8	14386	35.14839	0
8	14389	35.152112	1
8	14397	35.161038	0
8	14401	35.17202	1
8	14408	35.180946	0
8	14412	35.192968	1
8	14425	35.201894	0
8	14428	35.208776	1
8	14436	35.217702	0
8	14440	35.237404	1
8	14447	35.24633	0
8	14451	35.261172	1
8	14458	35.270098	0
8	14461	35.27934	1
8	14469	35.288266	0
8	14479	35.303708	1
8	14486	35.312634	0
8	14490	35.323376	1
8	14497	35.332302	0
8	14501	35.346164	1
8	14508	35.35509	0
8	14511	35.358672	1
8	14519	35.367598	0
8	14523	35.38236	1
8	14530	35.391286	0
8	14533	35.394168	1
8	14547	35.403094	0
8	14550	35.404776	1
8	14558	35.413702	0
8	14562	35.424064	1
8	14569	35.43299	0
8	14573	35.449752	1
8	14580	35.458678	0
8	14583	35.46184	1
8	14591	35.470766	0
8	14594	35.472808	1
8	14602	35.481734	0
8	14606	35.496976	1
8	14619	35.505902	0
8	14623	35.520864	1
8	14630	35.52979	0
8	14634	35.542672	1
8	14641	35.551598	0
8	14644	35.55302	1
8	14652	35.561946	0
8	14656	35.581648	1
8	14663	35.590574	0
8	14666	35.599016	1
8	14680	35.607942	0
8	14683	35.609764	1
8	14691	35.61869	0
8	14695	35.638312	1
8	14702	35.647238	0
8	14705	35.65204	1
8	14713	35.660966	0
8	14716	35.662468	1
8	14724	35.671394	0
8	14727	35.672616	1
8	14735	35.681542	0
8	14738	35.682184	1
8	14745	35.69111	0
8	14755	35.700592	1
8	14763	35.709518	0
8	14767	35.7249	1
8	14774	35.733826	0
8	14778	35.745328	1
8	14785	35.754254	0
8	14789	35.766476	1
8	14796	35.775402	0
8	14800	35.791064	1
8	14807	35.79999	0
8	14817	35.819152	1
8	14824	35.828078	0
8	14827	35.83486	1
8	14835	35.843786	0
8	14838	35.847408	1
8	14846	35.856334	0
8	14850	35.875376	1
8	14857	35.884302	0
8	14860	35.884664	1
8	14867	35.89359	0
8	14871	35.896452	1
8	14885	35.905378	0
8	14889	35.92236	1
8	14896	35.931286	0
8	14899	35.934448	1
8	14907	35.943374	0
8	14910	35.950396	1
8	14918	35.959322	0
8	14921	35.963804	1
8	14929	35.97273	0
8	14932	35.982192	1
8	14940	35.991118	0
8	14943	35.99546	1
8	14957	36.004386	0
8	14961	36.022108	1
8	14968	36.031034	0
8	14972	36.044816	1
8	14979	36.053742	0
8	14983	36.070164	1
8	14990	36.07909	0
8	14994	36.089892	1
8	15001	36.098818	0
8	15011	36.1179	1
8	15018	36.126826	0
8	15022	36.138668	1
8	15029	36.147594	0
8	15033	36.166496	1
8	15040	36.175422	0
8	15044	36.193744	1
8	15057	36.20267	0
8	15060	36.205832	1
8	15068	36.214758	0
8	15072	36.22604	1
8	15079	36.234966	0
8	15082	36.244688	1
8	15090	36.253614	0
8	15093	36.261376	1
8	15101	36.270302	0
8	15105	36.281724	1
8	15112	36.29065	0
8	15122	36.309372	1
8	15129	36.318298	0
8	15133	36.33664	1
8	15140	36.345566	0
8	15144	36.364768	1
8	15151	36.373694	0
8	15154	36.381176	1
8	15162	36.390102	0
8	15165	36.399144	1
8	15179	36.40807	0
8	15183	36.423272	1
8	15190	36.432198	0
8	15193	36.4389	1
8	15201	36.447826	0
8	15205	36.467188	1
8	15212	36.476114	0
8	15215	36.481816	1
8	15223	36.490742	0
8	15226	36.490924	1
8	15233	36.49985	0
8	15243	36.504272	1
8	15251	36.513198	0
8	15254	36.51478	1
8	15262	36.523706	0
8	15265	36.529988	1
8	15273	36.538914	0
8	15276	36.548156	1
8	15284	36.557082	0
8	15288	36.574824	1
8	15295	36.58375	0
8	15299	36.598432	1
8	15312	36.607358	0
8	15316	36.6241	1
8	15323	36.633026	0
8	15327	36.644368	1
8	15334	36.653294	0
8	15337	36.658556	1
8	15345	36.667482	0
8	15349	36.678704	1
8	15356	36.68763	0
8	15359	36.693672	1
8	15373	36.702598	0
8	15376	36.71156	1
8	15384	36.720486	0
8	15388	36.736848	1
8	15395	36.745774	0
8	15399	36.757216	1
8	15406	36.766142	0
8	15410	36.785064	1
8	15417	36.79399	0
8	15427	36.813532	1
8	15434	36.822458	0
8	15438	36.84286	1
8	15445	36.851786	0
8	15449	36.869228	1
8	15456	36.878154	0
8	15460	36.895156	1
8	15473	36.904082	0
8	15476	36.910664	1
8	15484	36.91959	0
8	15488	36.936572	1
8	15495	36.945498	0
8	15499	36.9577	1
8	15506	36.966626	0
8	15509	36.971988	1
8	15517	36.980914	0
8	15520	36.981576	1
8	15527	36.990502	0
8	15538	37.009904	1
8	15545	37.01883	0
8	15549	37.029432	1
8	15556	37.038358	0
8	15559	37.04624	1
8	15567	37.055166	0
8	15571	37.069188	1
8	15578	37.078114	0
8	15581	37.080836	1
8	15589	37.089762	0
8	15592	37.090164	1
8	15599	37.09909	0
8	15609	37.100412	1
8	15617	37.109338	0
8	15620	37.11828	1
8	15628	37.127206	0
8	15632	37.141768	1
8	15639	37.150694	0
8	15642	37.153556	1
8	15650	37.162482	0
8	15653	37.163384	1
8	15661	37.17231	0
8	15664	37.180212	1
8	15672	37.189138	0
8	15675	37.1958	1
8	15689	37.204726	0
8	15693	37.221688	1
8	15700	37.230614	0
8	15703	37.230856	1
8	15710	37.239782	0
8	15714	37.249184	1
8	15722	37.25811	0
8	15725	37.259932	1
8	15733	37.268858	0
8	15736	37.27274	1
8	15744	37.281666	0
8	15747	37.282428	1
8	15754	37.291354	0
8	15764	37.300976	1
8	15772	37.309902	0
8	15775	37.314744	1
8	15783	37.32367	0
8	15786	37.330252	1
8	15794	37.339178	0
8	15797	37.34252	1
8	15805	37.351446	0
8	15809	37.370428	1
8	15816	37.379354	0
8	15819	37.388676	1
8	15827	37.397602	0
8	15837	37.414744	1
8	15844	37.42367	0
8	15848	37.440452	1
8	15855	37.449378	0
8	15859	37.4605	1
8	15866	37.469426	0
8	15869	37.473068	1
8	15877	37.481994	0
8	15880	37.491276	1
8	15894	37.500202	0
8	15897	37.507144	1
8	15905	37.51607	0
8	15909	37.531872	1
8	15916	37.540798	0
8	15919	37.54992	1
8	15927	37.558846	0
8	15930	37.560028	1
8	15938	37.568954	0
8	15942	37.583276	1
8	15949	37.592202	0
8	15959	37.611584	1
8	15966	37.62051	0
8	15969	37.621212	1
8	15976	37.630138	0
8	15981	37.64602	1
8	15988	37.654946	0
8	15992	37.675148	1
8	15999	37.684074	0
8	16003	37.699916	1
8	16016	37.708842	0
8	16019	37.713724	1
8	16027	37.72265	0
8	16030	37.726932	1
8	16038	37.735858	0
8	16041	37.74388	1
8	16049	37.752806	0
8	16052	37.758028	1
8	16060	37.766954	0
8	16063	37.775356	1
8	16071	37.784282	0
8	16074	37.787324	1
8	16082	37.79625	0
8	16091	37.800572	1
8	16099	37.809498	0
8	16102	37.80978	1
8	16109	37.818706	0
8	16112	37.819188	1
8	16120	37.828114	0
8	16125	37.843336	1
8	16132	37.852262	0
8	16135	37.854124	1
8	16143	37.86305	0
8	16146	37.869532	1
8	16154	37.878458	0
8	16157	37.885	1
8	16165	37.893926	0
8	16175	37.904448	1
8	16182	37.913374	0
8	16186	37.927416	1
8	16193	37.936342	0
8	16197	37.952404	1
8	16204	37.96133	0
8	16208	37.979152	1
8	16215	37.988078	0
8	16219	37.99788	1
8	16232	38.006806	0
8	16236	38.016588	1
8	16243	38.025514	0
8	16246	38.026756	1
8	16254	38.035682	0
8	16257	38.040464	1
8	16265	38.04939	0
8	16268	38.054752	1
8	16276	38.063678	0
8	16279	38.06994	1
8	16287	38.078866	0
8	16291	38.096208	1
8	16304	38.105134	0
8	16308	38.119116	1
8	16315	38.128042	0
8	16318	38.130284	1
8	16326	38.13921	0
8	16330	38.157952	1
8	16337	38.166878	0
8	16340	38.17154	1
8	16348	38.180466	0
8	16358	38.200188	1
8	16365	38.209114	0
8	16368	38.212556	1
8	16376	38.221482	0
8	16379	38.231084	1
8	16387	38.24001	0
8	16391	38.259152	1
8	16398	38.268078	0
8	16401	38.27342	1
8	16409	38.282346	0
8	16413	38.298708	1
8	16426	38.307634	0
8	16430	38.318596	1
8	16437	38.327522	0
8	16441	38.344544	1
8	16448	38.35347	0
8	16451	38.363072	1
8	16459	38.371998	0
8	16462	38.38046	1
8	16470	38.389386	0
8	16480	38.403328	1
8	16487	38.412254	0
8	16491	38.426216	1
8	16498	38.435142	0
8	16502	38.448924	1
8	16509	38.45785	0
8	16512	38.466132	1
8	16520	38.475058	0
8	16524	38.49286	1
8	16537	38.501786	0
8	16541	38.513948	1
8	16548	38.522874	0
8	16551	38.523876	1
8	16559	38.532802	0
8	16562	38.538024	1
8	16570	38.54695	0
8	16573	38.554492	1
8	16581	38.563418	0
8	16585	38.58122	1
8	16592	38.590146	0
8	16602	38.602608	1
8	16609	38.611534	0
8	16612	38.613576	1
8	16620	38.622502	0
8	16623	38.628324	1
8	16631	38.63725	0
8	16634	38.638672	1
8	16642	38.647598	0
8	16645	38.65002	1
8	16653	38.658946	0
8	16656	38.663368	1
8	16664	38.672294	0
8	16668	38.687756	1
8	16675	38.696682	0
8	16685	38.713344	1
8	16692	38.72227	0
8	16696	38.735192	1
8	16703	38.744118	0
8	16706	38.7504	1
8	16714	38.759326	0
8	16718	38.777828	1
8	16725	38.786754	0
8	16728	38.787096	1
8	16735	38.796022	0
8	16746	38.813664	1
8	16753	38.82259	0
8	16757	38.832732	1
8	16764	38.841658	0
8	16767	38.84198	1
8	16774	38.850906	0
8	16778	38.853108	1
8	16786	38.862034	0
8	16789	38.864856	1
8	16797	38.873782	0
8	16801	38.887324	1
8	16808	38.89625	0
8	16818	38.913092	1
8	16825	38.922018	0
8	16829	38.9352	1
8	16836	38.944126	0
8	16839	38.950848	1
8	16847	38.959774	0
8	16850	38.961396	1
8	16858	38.970322	0
8	16861	38.977404	1
8	16869	38.98633	0
8	16879	39.005692	1
8	16886	39.014618	0
8	16890	39.02606	1
8	16897	39.034986	0
8	16900	39.038528	1
8	16908	39.047454	0
8	16912	39.060516	1
8	16919	39.069442	0
8	16922	39.077444	1
8	16930	39.08637	0
8	16933	39.089792	1
8	16941	39.098718	0
8	16951	39.11914	1
8	16958	39.128066	0
8	16961	39.131948	1
8	16969	39.140874	0
8	16973	39.156536	1
8	16980	39.165462	0
8	16983	39.174344	1
8	16991	39.18327	0
8	17001	39.203072	1
8	17008	39.211998	0
8	17011	39.21426	1
8	17019	39.223186	0
8	17022	39.223748	1
8	17029	39.232674	0
8	17033	39.234156	1
8	17041	39.243082	0
8	17045	39.253404	1
8	17052	39.26233	0
8	17055	39.262752	1
8	17062	39.271678	0
8	17066	39.27222	1
8	17073	39.281146	0
8	17084	39.301348	1
8	17091	39.310274	0
8	17095	39.330036	1
8	17102	39.338962	0
8	17105	39.344404	1
8	17113	39.35333	0
8	17117	39.364552	1
8	17124	39.373478	0
8	17128	39.39286	1
8	17141	39.401786	0
8	17144	39.409188	1
8	17152	39.418114	0
8	17156	39.436496	1
8	17163	39.445422	0
8	17167	39.462084	1
8	17174	39.47101	0
8	17177	39.472692	1
8	17185	39.481618	0
8	17188	39.4826	1
8	17196	39.491526	0
8	17199	39.497488	1
8	17213	39.506414	0
8	17216	39.509676	1
8	17224	39.518602	0
8	17228	39.533664	1
8	17235	39.54259	0
8	17238	39.544432	1
8	17246	39.553358	0
8	17249	39.55418	1
8	17256	39.563106	0
8	17261	39.582048	1
8	17268	39.590974	0
8	17271	39.595796	1
8	17285	39.604722	0
8	17288	39.609264	1
8	17296	39.61819	0
8	17300	39.632772	1
8	17307	39.641698	0
8	17310	39.64968	1
8	17318	39.658606	0
8	17322	39.674708	1
8	17329	39.683634	0
8	17333	39.695296	1
8	17346	39.704222	0
8	17349	39.709844	1
8	17357	39.71877	0
8	17360	39.722232	1
8	17368	39.731158	0
8	17371	39.73618	1
8	17379	39.745106	0
8	17383	39.763388	1
8	17390	39.772314	0
8	17394	39.791496	1
8	17407	39.800422	0
8	17411	39.815024	1
8	17418	39.82395	0
8	17422	39.840972	1
8	17429	39.849898	0
8	17433	39.86932	1
8	17440	39.878246	0
8	17444	39.888248	1
8	17451	39.897174	0
8	17454	39.897816	1
8	17467	39.906742	0
8	17471	39.913984	1
8	17479	39.92291	0
8	17483	39.934672	1
8	17490	39.943598	0
8	17494	39.9546	1
8	17501	39.963526	0
8	17504	39.964848	1
8	17512	39.973774	0
8	17515	39.980276	1
8	17523	39.989202	0
8	17526	39.989924	1
8	17533	39.99885	0
8	17543	40.005432	1
8	17551	40.014358	0
8	17554	40.01514	1
8	17561	40.024066	0
8	17566	40.040988	1
8	17573	40.049914	0
8	17576	40.055036	1
8	17584	40.063962	0
8	17588	40.083224	1
8	17595	40.09215	0
8	17605	40.112692	1
8	17612	40.121618	0
8	17615	40.12576	1
8	17623	40.134686	0
8	17627	40.153288	1
8	17634	40.162214	0
8	17638	40.179656	1
8	17645	40.188582	0
8	17655	40.208504	1
8	17662	40.21743	0
8	17666	40.228572	1
8	17673	40.237498	0
8	17676	40.24396	1
8	17684	40.252886	0
8	17687	40.254968	1
8	17695	40.263894	0
8	17699	40.274076	1
8	17706	40.283002	0
8	17710	40.298684	1
8	17723	40.30761	0
8	17726	40.314432	1
8	17734	40.323358	0
8	17738	40.34012	1
8	17745	40.349046	0
8	17749	40.364948	1
8	17756	40.373874	0
8	17759	40.382396	1
8	17767	40.391322	0
8	17776	40.400244	1
8	17784	40.40917	0
8	17787	40.412432	1
8	17795	40.421358	0
8	17799	40.4352	1
8	17806	40.444126	0
8	17809	40.446108	1
8	17817	40.455034	0
8	17820	40.463976	1
8	17828	40.472902	0
8	17832	40.490844	1
8	17839	40.49977	0
8	17849	40.516292	1
8	17856	40.525218	0
8	17860	40.53974	1
8	17867	40.548666	0
8	17871	40.568228	1
8	17878	40.577154	0
8	17881	40.577916	1
8	17888	40.586842	0
8	17899	40.601784	1
8	17906	40.61071	0
8	17909	40.619572	1
8	17917	40.628498	0
8	17920	40.63364	1
8	17928	40.642566	0
8	17932	40.658828	1
8	17939	40.667754	0
8	17943	40.679796	1
8	17950	40.688722	0
8	17960	40.703264	1
8	17967	40.71219	0
8	17971	40.722012	1
8	17978	40.730938	0
8	17981	40.73256	1
8	17989	40.741486	0
8	17993	40.753268	1
8	18000	40.762194	0
8	18004	40.780776	1
8	18011	40.789702	0
8	18021	40.804644	1
8	18028	40.81357	0
8	18032	40.829672	1
8	18039	40.838598	0
8	18042	40.84072	1
8	18050	40.849646	0
8	18053	40.858748	1
8	18061	40.867674	0
8	18065	40.883936	1
8	18072	40.892862	0
8	18082	40.911284	1
8	18089	40.92021	0
8	18092	40.921172	1
8	18100	40.930098	0
8	18104	40.9402	1
8	18111	40.949126	0
8	18115	40.966528	1
8	18122	40.975454	0
8	18126	40.992096	1
8	18139	41.001022	0
8	18143	41.014804	1
8	18150	41.02373	0
8	18153	41.031252	1
8	18161	41.040178	0
8	18164	41.04516	1
8	18172	41.054086	0
8	18176	41.073188	1
8	18183	41.082114	0
8	18187	41.095496	1
8	18200	41.104422	0
8	18204	41.123884	1
8	18211	41.13281	0
8	18214	41.136732	1
8	18222	41.145658	0
8	18225	41.14956	1
8	18233	41.158486	0
8	18236	41.165928	1
8	18244	41.174854	0
8	18247	41.176916	1
8	18255	41.185842	0
8	18258	41.189084	1
8	18266	41.19801	0
8	18275	41.203272	1
8	18283	41.212198	0
8	18287	41.2287	1
8	18294	41.237626	0
8	18298	41.258048	1
8	18305	41.266974	0
8	18308	41.272636	1
8	18316	41.281562	0
8	18320	41.296944	1
8	18333	41.30587	0
8	18337	41.325232	1
8	18344	41.334158	0
8	18347	41.34144	1
8	18355	41.350366	0
8	18359	41.369968	1
8	18366	41.378894	0
8	18370	41.388796	1
8	18377	41.397722	0
8	18387	41.413584	1
8	18394	41.42251	0
8	18397	41.427712	1
8	18405	41.436638	0
8	18408	41.4461	1
8	18416	41.455026	0
8	18420	41.470008	1
8	18427	41.478934	0
8	18430	41.485376	1
8	18438	41.494302	0
8	18448	41.507024	1
8	18455	41.51595	0
8	18459	41.527572	1
8	18466	41.536498	0
8	18470	41.5466	1
8	18477	41.555526	0
8	18481	41.575968	1
8	18488	41.584894	0
8	18492	41.598596	1
8	18505	41.607522	0
8	18509	41.619264	1
8	18516	41.62819	0
8	18520	41.642512	1
8	18527	41.651438	0
8	18530	41.65536	1
8	18538	41.664286	0
8	18541	41.671288	1
8	18549	41.680214	0
8	18552	41.689356	1
8	18560	41.698282	0
8	18570	41.714164	1
8	18577	41.72309	0
8	18581	41.736752	1
8	18588	41.745678	0
8	18592	41.76152	1
8	18599	41.770446	0
8	18602	41.773568	1
8	18610	41.782494	0
8	18613	41.786736	1
8	18621	41.795662	0
8	18630	41.803044	1
8	18638	41.81197	0
8	18642	41.827212	1
8	18649	41.836138	0
8	18653	41.8496	1
8	18660	41.858526	0
8	18664	41.873728	1
8	18671	41.882654	0
8	18674	41.891116	1
8	18688	41.900042	0
8	18692	41.918264	1
8	18699	41.92719	0
8	18703	41.945652	1
8	18710	41.954578	0
8	18714	41.97484	1
8	18721	41.983766	0
8	18724	41.985268	1
8	18732	41.994194	0
8	18742	42.006216	1
8	18749	42.015142	0
8	18753	42.035604	1
8	18760	42.04453	0
8	18764	42.059172	1
8	18771	42.068098	0
8	18774	42.0759	1
8	18782	42.084826	0
8	18792	42.104948	1
8	18799	42.113874	0
8	18803	42.124076	1
8	18810	42.133002	0
8	18814	42.147424	1
8	18821	42.15635	0
8	18824	42.158272	1
8	18832	42.167198	0
8	18836	42.18316	1
8	18843	42.192086	0
8	18853	42.209468	1
8	18860	42.218394	0
8	18864	42.234156	1
8	18871	42.243082	0
8	18875	42.263664	1
8	18882	42.27259	0
8	18885	42.280632	1
8	18893	42.289558	0
8	18903	42.30846	1
8	18910	42.317386	0
8	18913	42.321848	1
8	18921	42.330774	0
8	18924	42.331396	1
8	18931	42.340322	0
8	18936	42.356764	1
8	18943	42.36569	0
8	18946	42.370812	1
8	18954	42.379738	0
8	18957	42.38892	1
8	18965	42.397846	0
8	18975	42.416768	1
8	18982	42.425694	0
8	18986	42.438496	1
8	18993	42.447422	0
8	18996	42.450384	1
8	19004	42.45931	0
8	19007	42.459572	1
8	19014	42.468498	0
8	19017	42.46868	1
8	19025	42.477606	0
8	19029	42.484208	1
8	19037	42.493134	0
8	19046	42.500256	1
8	19054	42.509182	0
8	19057	42.517084	1
8	19065	42.52601	0
8	19068	42.529272	1
8	19076	42.538198	0
8	19079	42.53904	1
8	19086	42.547966	0
8	19091	42.568048	1
8	19098	42.576974	0
8	19102	42.596676	1
8	19115	42.605602	0
8	19118	42.609844	1
8	19126	42.61877	0
8	19129	42.622392	1
8	19137	42.631318	0
8	19140	42.63302	1
8	19148	42.641946	0
8	19152	42.654428	1
8	19159	42.663354	0
8	19162	42.671296	1
8	19170	42.680222	0
8	19173	42.684744	1
8	19181	42.69367	0
8	19191	42.710772	1
8	19198	42.719698	0
8	19201	42.72286	1
8	19209	42.731786	0
8	19213	42.748548	1
8	19220	42.757474	0
8	19224	42.767276	1
8	19231	42.776202	0
8	19235	42.790564	1
8	19242	42.79949	0
8	19251	42.804872	1
8	19259	42.813798	0
8	19263	42.83314	1
8	19270	42.842066	0
8	19273	42.843208	1
8	19281	42.852134	0
8	19284	42.854076	1
8	19292	42.863002	0
8	19295	42.863324	1
8	19302	42.87225	0
8	19307	42.884732	1
8	19314	42.893658	0
8	19324	42.911	1
8	19331	42.919926	0
8	19335	42.940268	1
8	19342	42.949194	0
8	19346	42.961276	1
8	19353	42.970202	0
8	19357	42.980244	1
8	19364	42.98917	0
8	19367	42.989972	1
8	19374	42.998898	0
8	19384	43.00814	1
8	19392	43.017066	0
8	19395	43.025048	1
8	19403	43.033974	0
8	19407	43.043856	1
8	19414	43.052782	0
8	19418	43.069304	1
8	19425	43.07823	0
8	19428	43.079032	1
8	19435	43.087958	0
8	19446	43.10808	1
8	19453	43.117006	0
8	19457	43.134488	1
8	19464	43.143414	0
8	19467	43.152456	1
8	19475	43.161382	0
8	19479	43.171904	1
8	19486	43.18083	0
8	19496	43.201392	1
8	19503	43.210318	0
8	19506	43.21896	1
8	19514	43.227886	0
8	19517	43.228568	1
8	19524	43.237494	0
8	19529	43.254016	1
8	19536	43.262942	0
8	19539	43.269004	1
8	19547	43.27793	0
8	19551	43.295872	1
8	19564	43.304798	0
8	19568	43.3223	1
8	19575	43.331226	0
8	19579	43.342508	1
8	19586	43.351434	0
8	19590	43.368816	1
8	19597	43.377742	0
8	19601	43.390864	1
8	19608	43.39979	0
8	19618	43.414952	1
8	19625	43.423878	0
8	19628	43.42494	1
8	19636	43.433866	0
8	19640	43.446668	1
8	19647	43.455594	0
8	19651	43.467136	1
8	19658	43.476062	0
8	19661	43.476624	1
8	19668	43.48555	0
8	19679	43.504692	1
8	19686	43.513618	0
8	19690	43.52694	1
8	19697	43.535866	0
8	19700	43.538948	1
8	19708	43.547874	0
8	19712	43.565076	1
8	19719	43.574002	0
8	19722	43.574684	1
8	19729	43.58361	0
8	19733	43.585692	1
8	19741	43.594618	0
8	19751	43.60964	1
8	19758	43.618566	0
8	19762	43.633628	1
8	19769	43.642554	0
8	19772	43.650796	1
8	19780	43.659722	0
8	19783	43.666864	1
8	19791	43.67579	0
8	19794	43.680712	1
8	19802	43.689638	0
8	19805	43.69782	1
8	19819	43.706746	0
8	19823	43.727248	1
8	19830	43.736174	0
8	19833	43.742136	1
8	19841	43.751062	0
8	19844	43.753104	1
8	19852	43.76203	0
8	19855	43.762752	1
8	19862	43.771678	0
8	19866	43.779	1
8	19874	43.787926	0
8	19877	43.793628	1
8	19891	43.802554	0
8	19894	43.807636	1
8	19902	43.816562	0
8	19906	43.832264	1
8	19913	43.84119	0
8	19917	43.857532	1
8	19924	43.866458	0
8	19928	43.87828	1
8	19935	43.887206	0
8	19939	43.898208	1
8	19952	43.907134	0
8	19956	43.919156	1
8	19963	43.928082	0
8	19967	43.941164	1
8	19974	43.95009	0
8	19978	43.964772	1
8	19985	43.973698	0
8	19988	43.97656	1
8	19996	43.985486	0
8	19999	43.991968	1
8	20013	44.000894	0
8	20017	44.010916	1
8	20024	44.019842	0
8	20027	44.025784	1
8	20035	44.03471	0
8	20039	44.054652	1
8	20046	44.063578	0
8	20049	44.06874	1
8	20057	44.077666	0
8	20060	44.080428	1
8	20068	44.089354	0
8	20071	44.095716	1
8	20085	44.104642	0
8	20089	44.122264	1
8	20096	44.13119	0
8	20100	44.150612	1
8	20107	44.159538	0
8	20111	44.17984	1
8	20118	44.188766	0
8	20121	44.189208	1
8	20128	44.198134	0
8	20138	44.203876	1
8	20146	44.212802	0
8	20150	44.224424	1
8	20157	44.23335	0
8	20160	44.235612	1
8	20168	44.244538	0
8	20171	44.2471	1
8	20179	44.256026	0
8	20183	44.266928	1
8	20190	44.275854	0
8	20194	44.296236	1
8	20207	44.305162	0
8	20210	44.310044	1
8	20218	44.31897	0
8	20222	44.330292	1
8	20229	44.339218	0
8	20232	44.34878	1
8	20240	44.357706	0
8	20244	44.367608	1
8	20251	44.376534	0
8	20254	44.379936	1
8	20262	44.388862	0
8	20266	44.399004	1
8	20279	44.40793	0
8	20282	44.412372	1
8	20290	44.421298	0
8	20293	44.42622	1
8	20301	44.435146	0
8	20304	44.444768	1
8	20312	44.453694	0
8	20316	44.473316	1
8	20323	44.482242	0
8	20326	44.489244	1
8	20334	44.49817	0
8	20343	44.502012	1
8	20351	44.510938	0
8	20355	44.5301	1
8	20362	44.539026	0
8	20366	44.555508	1
8	20373	44.564434	0
8	20376	44.570736	1
8	20384	44.579662	0
8	20388	44.595644	1
8	20401	44.60457	0
8	20404	44.608612	1
8	20412	44.617538	0
8	20415	44.61914	1
8	20423	44.628066	0
8	20426	44.631688	1
8	20434	44.640614	0
8	20437	44.648836	1
8	20445	44.657762	0
8	20448	44.664344	1
8	20456	44.67327	0
8	20460	44.693212	1
8	20473	44.702138	0
8	20476	44.71046	1
8	20484	44.719386	0
8	20488	44.732328	1
8	20495	44.741254	0
8	20498	44.743336	1
8	20506	44.752262	0
8	20509	44.756924	1
8	20517	44.76585	0
8	20521	44.785452	1
8	20528	44.794378	0
8	20531	44.7973	1
8	20545	44.806226	0
8	20549	44.822208	1
8	20556	44.831134	0
8	20559	44.836136	1
8	20567	44.845062	0
8	20570	44.846284	1
8	20578	44.85521	0
8	20582	44.872852	1
8	20589	44.881778	0
8	20593	44.8972	1
8	20606	44.906126	0
8	20610	44.920008	1
8	20617	44.928934	0
8	20620	44.938296	1
8	20628	44.947222	0
8	20632	44.965104	1
8	20639	44.97403	0
8	20642	44.980092	1
8	20650	44.989018	0
8	20653	44.99802	1
8	20667	45.006946	0
8	20671	45.021928	1
8	20678	45.030854	0
8	20682	45.051336	1
8	20689	45.060262	0
8	20693	45.077344	1
8	20700	45.08627	0
8	20704	45.098432	1
8	20717	45.107358	0
8	20721	45.12348	1
8	20728	45.132406	0
8	20732	45.142428	1
8	20739	45.151354	0
8	20743	45.167976	1
8	20750	45.176902	0
8	20754	45.192124	1
8	20767	45.20105	0
8	20770	45.209632	1
8	20778	45.218558	0
8	20782	45.23846	1
8	20789	45.247386	0
8	20793	45.257348	1
8	20800	45.266274	0
8	20803	45.274496	1
8	20811	45.283422	0
8	20821	45.301764	1
8	20828	45.31069	0
8	20832	45.320632	1
8	20839	45.329558	0
8	20842	45.33616	1
8	20850	45.345086	0
8	20854	45.357088	1
8	20861	45.366014	0
8	20864	45.367736	1
8	20872	45.376662	0
8	20876	45.394784	1
8	20889	45.40371	0
8	20892	45.412932	1
8	20900	45.421858	0
8	20904	45.44244	1
[...]
73	45824	42.4	0
73	45824	42.5	0
73	45824	42.6	0
73	45824	42.7	0
73	45824	42.8	0
73	45824	42.9	0
73	45824	43	0
73	45824	43.1	0
73	45824	43.2	0
73	45824	43.3	0
73	45824	43.4	0
73	45824	43.5	0
73	45824	43.6	0
73	45824	43.7	0
73	45824	43.8	0
73	45824	43.9	0
73	45824	44	0
73	45824	44.1	0
73	45824	44.2	0
73	45824	44.3	0
73	45824	44.4	0
73	45824	44.5	0
73	45824	44.6	0
73	45824	44.7	0
73	45824	44.8	0
73	45824	44.9	0
73	45824	45	0
73	45824	45.1	0
73	45824	45.2	0
73	45824	45.3	0
73	45824	45.4	0
73	45824	45.5	0
73	45824	45.6	0
73	45824	45.7	0
73	45824	45.8	0
73	45824	45.9	0
73	45824	46	0
73	45824	46.1	0
73	45824	46.2	0
73	45824	46.3	0
73	45824	46.4	0
73	45824	46.5	0
73	45824	46.6	0
73	45824	46.7	0
73	45824	46.8	0
73	45824	46.9	0
73	45824	47	0
73	45824	47.1	0
73	45824	47.2	0
73	45824	47.3	0
73	45824	47.4	0
73	45824	47.5	0
73	45824	47.6	0
73	45824	47.7	0
73	45824	47.8	0
73	45824	47.9	0
73	45824	48	0
73	45824	48.1	0
73	45824	48.2	0
73	45824	48.3	0
73	45824	48.4	0
73	45824	48.5	0
73	45824	48.6	0
73	45824	48.7	0
73	45824	48.8	0
73	45824	48.9	0
73	45824	49	0
73	45824	49.1	0
73	45824	49.2	0
73	45824	49.3	0
73	45824	49.4	0
73	45824	49.5	0
73	45824	49.6	0
73	45824	49.7	0
73	45824	49.8	0
73	45824	49.9	0
73	45824	50	0
73	45824	50.1	0
73	45824	50.2	0
73	45824	50.3	0
73	45824	50.4	0
73	45824	50.5	0
73	45824	50.6	0
73	45824	50.7	0
73	45824	50.8	0
73	45824	50.9	0
73	45824	51	0
73	45824	51.1	0
73	45824	51.2	0
73	45824	51.3	0
73	45824	51.4	0
73	45824	51.5	0
73	45824	51.6	0
73	45824	51.7	0
73	45824	51.8	0
73	45824	51.9	0
73	45824	52	0
73	45824	52.1	0
73	45824	52.2	0
73	45824	52.3	0
73	45824	52.4	0
73	45824	52.5	0
73	45824	52.6	0
73	45824	52.7	0
73	45824	52.8	0
73	45824	52.9	0
73	45824	53	0
73	45824	53.1	0
73	45824	53.2	0
73	45824	53.3	0
73	45824	53.4	0
73	45824	53.5	0
73	45824	53.6	0
73	45824	53.7	0
73	45824	53.8	0
73	45824	53.9	0
73	45824	54	0
73	45824	54.1	0
73	45824	54.2	0
73	45824	54.3	0
73	45824	54.4	0
73	45824	54.5	0
73	45824	54.6	0
73	45824	54.7	0
73	45824	54.8	0
73	45824	54.9	0
73	45824	55	0
73	45824	55.1	0
73	45824	55.2	0
73	45824	55.3	0
73	45824	55.4	0
73	45824	55.5	0
73	45824	55.6	0
73	45824	55.7	0
73	45824	55.8	0
73	45824	55.9	0
73	45824	56	0
73	45824	56.1	0
73	45824	56.2	0
73	45824	56.3	0
73	45824	56.4	0
73	45824	56.5	0
73	45824	56.6	0
73	45824	56.7	0
73	45824	56.8	0
73	45824	56.9	0
73	45824	57	0
73	45824	57.1	0
73	45824	57.2	0
73	45824	57.3	0
73	45824	57.4	0
73	45824	57.5	0
73	45824	57.6	0
73	45824	57.7	0
73	45824	57.8	0
73	45824	57.9	0
73	45824	58	0
73	45824	58.1	0
73	45824	58.2	0
73	45824	58.3	0
73	45824	58.4	0
73	45824	58.5	0
73	45824	58.6	0
73	45824	58.7	0
73	45824	58.8	0
73	45824	58.9	0
73	45824	59	0
73	45824	59.1	0
73	45824	59.2	0
73	45824	59.3	0
73	45824	59.4	0
73	45824	59.5	0
73	45824	59.6	0
73	45824	59.7	0
73	45824	59.8	0
73	45824	59.9	0
73	45824	60	0
73	45824	60.1	0
73	45824	60.2	0
73	45824	60.3	0
73	45824	60.4	0
73	45824	60.5	0
73	45824	60.6	0
73	45824	60.7	0
73	45824	60.8	0
73	45824	60.9	0
73	45824	61	0
73	45824	61.1	0
73	45824	61.2	0
73	45824	61.3	0
73	45824	61.4	0
73	45824	61.5	0
73	45824	61.6	0
73	45824	61.7	0
73	45824	61.8	0
73	45824	61.9	0
73	45824	62	0
73	45824	62.1	0
73	45824	62.2	0
73	45824	62.3	0
73	45824	62.4	0
73	45824	62.5	0
73	45824	62.6	0
73	45824	62.7	0
73	45824	62.8	0
73	45824	62.9	0
73	45824	63	0
73	45824	63.1	0
73	45824	63.2	0
73	45824	63.3	0
73	45824	63.4	0
73	45824	63.5	0
73	45824	63.6	0
73	45824	63.7	0
73	45824	63.8	0
73	45824	63.9	0
73	45824	64	0
73	45824	64.1	0
73	45824	64.2	0
73	45824	64.3	0
73	45824	64.4	0
73	45824	64.5	0
73	45824	64.6	0
73	45824	64.7	0
73	45824	64.8	0
73	45824	64.9	0
73	45824	65	0
73	45824	65.1	0
73	45824	65.2	0
73	45824	65.3	0
73	45824	65.4	0
73	45824	65.5	0
73	45824	65.6	0
73	45824	65.7	0
73	45824	65.8	0
73	45824	65.9	0
73	45824	66	0
73	45824	66.1	0
73	45824	66.2	0
73	45824	66.3	0
73	45824	66.4	0
73	45824	66.5	0
73	45824	66.6	0
73	45824	66.7	0
73	45824	66.8	0
73	45824	66.9	0
73	45824	67	0
73	45824	67.1	0
73	45824	67.2	0
73	45824	67.3	0
73	45824	67.4	0
73	45824	67.5	0
73	45824	67.6	0
73	45824	67.7	0
73	45824	67.8	0
73	45824	67.9	0
73	45824	68	0
73	45824	68.1	0
73	45824	68.2	0
73	45824	68.3	0
73	45824	68.4	0
73	45824	68.5	0
73	45824	68.6	0
73	45824	68.7	0
73	45824	68.8	0
73	45824	68.9	0
73	45824	69	0
73	45824	69.1	0
73	45824	69.2	0
73	45824	69.3	0
73	45824	69.4	0
73	45824	69.5	0
73	45824	69.6	0
73	45824	69.7	0
73	45824	69.8	0
73	45824	69.9	0
73	45824	70	0
73	45824	70.1	0
73	45824	70.2	0
73	45824	70.3	0
73	45824	70.4	0
73	45824	70.5	0
73	45824	70.6	0
73	45824	70.7	0
73	45824	70.8	0
73	45824	70.9	0
73	45824	71	0
73	45824	71.1	0
73	45824	71.2	0
73	45824	71.3	0
73	45824	71.4	0
73	45824	71.5	0
73	45824	71.6	0
73	45824	71.7	0
73	45824	71.8	0
73	45824	71.9	0
73	45824	72	0
73	45824	72.1	0
73	45824	72.2	0
73	45824	72.3	0
73	45824	72.4	0
73	45824	72.5	0
73	45824	72.6	0
73	45824	72.7	0
73	45824	72.8	0
73	45824	72.9	0
73	45824	73	0
73	45824	73.1	0
73	45824	73.2	0
73	45824	73.3	0
73	45824	73.4	0
73	45824	73.5	0
73	45824	73.6	0
73	45824	73.7	0
73	45824	73.8	0
73	45824	73.9	0
73	45824	74	0
73	45824	74.1	0
73	45824	74.2	0
73	45824	74.3	0
73	45824	74.4	0
73	45824	74.5	0
73	45824	74.6	0
73	45824	74.7	0
73	45824	74.8	0
73	45824	74.9	0
73	45824	75	0
73	45824	75.1	0
73	45824	75.2	0
73	45824	75.3	0
73	45824	75.4	0
73	45824	75.5	0
73	45824	75.6	0
73	45824	75.7	0
73	45824	75.8	0
73	45824	75.9	0
73	45824	76	0
73	45824	76.1	0
73	45824	76.2	0
73	45824	76.3	0
73	45824	76.4	0
73	45824	76.5	0
73	45824	76.6	0
73	45824	76.7	0
73	45824	76.8	0
73	45824	76.9	0
73	45824	77	0
73	45824	77.1	0
73	45824	77.2	0
73	45824	77.3	0
73	45824	77.4	0
73	45824	77.5	0
73	45824	77.6	0
73	45824	77.7	0
73	45824	77.8	0
73	45824	77.9	0
73	45824	78	0
73	45824	78.1	0
73	45824	78.2	0
73	45824	78.3	0
73	45824	78.4	0
73	45824	78.5	0
73	45824	78.6	0
73	45824	78.7	0
73	45824	78.8	0
73	45824	78.9	0
73	45824	79	0
73	45824	79.1	0
73	45824	79.2	0
73	45824	79.3	0
73	45824	79.4	0
73	45824	79.5	0
73	45824	79.6	0
73	45824	79.7	0
73	45824	79.8	0
73	45824	79.9	0
73	45824	80	0
73	45824	80.1	0
73	45824	80.2	0
73	45824	80.3	0
73	45824	80.4	0
73	45824	80.5	0
73	45824	80.6	0
73	45824	80.7	0
73	45824	80.8	0
73	45824	80.9	0
73	45824	81	0
73	45824	81.1	0
73	45824	81.2	0
73	45824	81.3	0
73	45824	81.4	0
73	45824	81.5	0
73	45824	81.6	0
73	45824	81.7	0
73	45824	81.8	0
73	45824	81.9	0
73	45824	82	0
73	45824	82.1	0
73	45824	82.2	0
73	45824	82.3	0
73	45824	82.4	0
73	45824	82.5	0
73	45824	82.6	0
73	45824	82.7	0
73	45824	82.8	0
73	45824	82.9	0
73	45824	83	0
73	45824	83.1	0
73	45824	83.2	0
73	45824	83.3	0
73	45824	83.4	0
73	45824	83.5	0
73	45824	83.6	0
73	45824	83.7	0
73	45824	83.8	0
73	45824	83.9	0
73	45824	84	0
73	45824	84.1	0
73	45824	84.2	0
73	45824	84.3	0
73	45824	84.4	0
73	45824	84.5	0
73	45824	84.6	0
73	45824	84.604134	0
74	45824	0.1	0
74	45824	0.2	0
74	45824	0.3	0
74	45824	0.4	0
74	45824	0.5	0
74	45824	0.6	0
74	45824	0.7	0
74	45824	0.8	0
74	45824	0.9	0
74	45824	1	0
74	45824	1.1	0
74	45824	1.2	0
74	45824	1.3	0
74	45824	1.4	0
74	45824	1.5	0
74	45824	1.6	0
74	45824	1.7	0
74	45824	1.8	0
74	45824	1.9	0
74	45824	2	0
74	45824	2.1	0
74	45824	2.2	0
74	45824	2.3	0
74	45824	2.4	0
74	45824	2.5	0
74	45824	2.6	0
74	45824	2.7	0
74	45824	2.8	0
74	45824	2.9	0
74	45824	3	0
74	45824	3.1	0
74	45824	3.2	0
74	45824	3.3	0
74	45824	3.4	0
74	45824	3.5	0
74	45824	3.6	0
74	45824	3.7	0
74	45824	3.8	0
74	45824	3.9	0
74	45824	4	0
74	45824	4.1	0
74	45824	4.2	0
74	45824	4.3	0
74	45824	4.4	0
74	45824	4.5	0
74	45824	4.6	0
74	45824	4.7	0
74	45824	4.8	0
74	45824	4.9	0
74	45824	5	0
74	45824	5.1	0
74	45824	5.2	0
74	45824	5.3	0
74	45824	5.4	0
74	45824	5.5	0
74	45824	5.6	0
74	45824	5.7	0
74	45824	5.8	0
74	45824	5.9	0
74	45824	6	0
74	45824	6.1	0
74	45824	6.2	0
74	45824	6.3	0
74	45824	6.4	0
74	45824	6.5	0
74	45824	6.6	0
74	45824	6.7	0
74	45824	6.8	0
74	45824	6.9	0
74	45824	7	0
74	45824	7.1	0
74	45824	7.2	0
74	45824	7.3	0
74	45824	7.4	0
74	45824	7.5	0
74	45824	7.6	0
74	45824	7.7	0
74	45824	7.8	0
74	45824	7.9	0
74	45824	8	0
74	45824	8.1	0
74	45824	8.2	0
74	45824	8.3	0
74	45824	8.4	0
74	45824	8.5	0
74	45824	8.6	0
74	45824	8.7	0
74	45824	8.8	0
74	45824	8.9	0
74	45824	9	0
74	45824	9.1	0
74	45824	9.2	0
74	45824	9.3	0
74	45824	9.4	0
74	45824	9.5	0
74	45824	9.6	0
74	45824	9.7	0
74	45824	9.8	0
74	45824	9.9	0
74	45824	10	0
74	45824	10.1	0
74	45824	10.2	0
74	45824	10.3	0
74	45824	10.4	0
74	45824	10.5	0
74	45824	10.6	0
74	45824	10.7	0
74	45824	10.8	0
74	45824	10.9	0
74	45824	11	0
74	45824	11.1	0
74	45824	11.2	0
74	45824	11.3	0
74	45824	11.4	0
74	45824	11.5	0
74	45824	11.6	0
74	45824	11.7	0
74	45824	11.8	0
74	45824	11.9	0
74	45824	12	0
74	45824	12.1	0
74	45824	12.2	0
74	45824	12.3	0
74	45824	12.4	0
74	45824	12.5	0
74	45824	12.6	0
74	45824	12.7	0
74	45824	12.8	0
74	45824	12.9	0
74	45824	13	0
74	45824	13.1	0
74	45824	13.2	0
74	45824	13.3	0
74	45824	13.4	0
74	45824	13.5	0
74	45824	13.6	0
74	45824	13.7	0
74	45824	13.8	0
74	45824	13.9	0
74	45824	14	0
74	45824	14.1	0
74	45824	14.2	0
74	45824	14.3	0
74	45824	14.4	0
74	45824	14.5	0
74	45824	14.6	0
74	45824	14.7	0
74	45824	14.8	0
74	45824	14.9	0
74	45824	15	0
74	45824	15.1	0
74	45824	15.2	0
74	45824	15.3	0
74	45824	15.4	0
74	45824	15.5	0
74	45824	15.6	0
74	45824	15.7	0
74	45824	15.8	0
74	45824	15.9	0
74	45824	16	0
74	45824	16.1	0
74	45824	16.2	0
74	45824	16.3	0
74	45824	16.4	0
74	45824	16.5	0
74	45824	16.6	0
74	45824	16.7	0
74	45824	16.8	0
74	45824	16.9	0
74	45824	17	0
74	45824	17.1	0
74	45824	17.2	0
74	45824	17.3	0
74	45824	17.4	0
74	45824	17.5	0
74	45824	17.6	0
74	45824	17.7	0
74	45824	17.8	0
74	45824	17.9	0
74	45824	18	0
74	45824	18.1	0
74	45824	18.2	0
74	45824	18.3	0
74	45824	18.4	0
74	45824	18.5	0
74	45824	18.6	0
74	45824	18.7	0
74	45824	18.8	0
74	45824	18.9	0
74	45824	19	0
74	45824	19.1	0
74	45824	19.2	0
74	45824	19.3	0
74	45824	19.4	0
74	45824	19.5	0
74	45824	19.6	0
74	45824	19.7	0
74	45824	19.8	0
74	45824	19.9	0
74	45824	20	0
74	45824	20.1	0
74	45824	20.2	0
74	45824	20.3	0
74	45824	20.4	0
74	45824	20.5	0
74	45824	20.6	0
74	45824	20.7	0
74	45824	20.8	0
74	45824	20.9	0
74	45824	21	0
74	45824	21.1	0
74	45824	21.2	0
74	45824	21.3	0
74	45824	21.4	0
74	45824	21.5	0
74	45824	21.6	0
74	45824	21.7	0
74	45824	21.8	0
74	45824	21.9	0
74	45824	22	0
74	45824	22.1	0
74	45824	22.2	0
74	45824	22.3	0
74	45824	22.4	0
74	45824	22.5	0
74	45824	22.6	0
74	45824	22.7	0
74	45824	22.8	0
74	45824	22.9	0
74	45824	23	0
74	45824	23.1	0
74	45824	23.2	0
74	45824	23.3	0
74	45824	23.4	0
74	45824	23.5	0
74	45824	23.6	0
74	45824	23.7	0
74	45824	23.8	0
74	45824	23.9	0
74	45824	24	0
74	45824	24.1	0
74	45824	24.2	0
74	45824	24.3	0
74	45824	24.4	0
74	45824	24.5	0
74	45824	24.6	0
74	45824	24.7	0
74	45824	24.8	0
74	45824	24.9	0
74	45824	25	0
74	45824	25.1	0
74	45824	25.2	0
74	45824	25.3	0
74	45824	25.4	0
74	45824	25.5	0
74	45824	25.6	0
74	45824	25.7	0
74	45824	25.8	0
74	45824	25.9	0
74	45824	26	0
74	45824	26.1	0
74	45824	26.2	0
74	45824	26.3	0
74	45824	26.4	0
74	45824	26.5	0
74	45824	26.6	0
74	45824	26.7	0
74	45824	26.8	0
74	45824	26.9	0
74	45824	27	0
74	45824	27.1	0
74	45824	27.2	0
74	45824	27.3	0
74	45824	27.4	0
74	45824	27.5	0
74	45824	27.6	0
74	45824	27.7	0
74	45824	27.8	0
74	45824	27.9	0
74	45824	28	0
74	45824	28.1	0
74	45824	28.2	0
74	45824	28.3	0
74	45824	28.4	0
74	45824	28.5	0
74	45824	28.6	0
74	45824	28.7	0
74	45824	28.8	0
74	45824	28.9	0
74	45824	29	0
74	45824	29.1	0
74	45824	29.2	0
74	45824	29.3	0
74	45824	29.4	0
74	45824	29.5	0
74	45824	29.6	0
74	45824	29.7	0
74	45824	29.8	0
74	45824	29.9	0
74	45824	30	0
74	45824	30.1	0
74	45824	30.2	0
74	45824	30.3	0
74	45824	30.4	0
74	45824	30.5	0
74	45824	30.6	0
74	45824	30.7	0
74	45824	30.8	0
74	45824	30.9	0
74	45824	31	0
74	45824	31.1	0
74	45824	31.2	0
74	45824	31.3	0
74	45824	31.4	0
74	45824	31.5	0
74	45824	31.6	0
74	45824	31.7	0
74	45824	31.8	0
74	45824	31.9	0
74	45824	32	0
74	45824	32.1	0
74	45824	32.2	0
74	45824	32.3	0
74	45824	32.4	0
74	45824	32.5	0
74	45824	32.6	0
74	45824	32.7	0
74	45824	32.8	0
74	45824	32.9	0
74	45824	33	0
74	45824	33.1	0
74	45824	33.2	0
74	45824	33.3	0
74	45824	33.4	0
74	45824	33.5	0
74	45824	33.6	0
74	45824	33.7	0
74	45824	33.8	0
74	45824	33.9	0
74	45824	34	0
74	45824	34.1	0
74	45824	34.2	0
74	45824	34.3	0
74	45824	34.4	0
74	45824	34.5	0
74	45824	34.6	0
74	45824	34.7	0
74	45824	34.8	0
74	45824	34.9	0
74	45824	35	0
74	45824	35.1	0
74	45824	35.2	0
74	45824	35.3	0
74	45824	35.4	0
74	45824	35.5	0
74	45824	35.6	0
74	45824	35.7	0
74	45824	35.8	0
74	45824	35.9	0
74	45824	36	0
74	45824	36.1	0
74	45824	36.2	0
74	45824	36.3	0
74	45824	36.4	0
74	45824	36.5	0
74	45824	36.6	0
74	45824	36.7	0
74	45824	36.8	0
74	45824	36.9	0
74	45824	37	0
74	45824	37.1	0
74	45824	37.2	0
74	45824	37.3	0
74	45824	37.4	0
74	45824	37.5	0
74	45824	37.6	0
74	45824	37.7	0
74	45824	37.8	0
74	45824	37.9	0
74	45824	38	0
74	45824	38.1	0
74	45824	38.2	0
74	45824	38.3	0
74	45824	38.4	0
74	45824	38.5	0
74	45824	38.6	0
74	45824	38.7	0
74	45824	38.8	0
74	45824	38.9	0
74	45824	39	0
74	45824	39.1	0
74	45824	39.2	0
74	45824	39.3	0
74	45824	39.4	0
74	45824	39.5	0
74	45824	39.6	0
74	45824	39.7	0
74	45824	39.8	0
74	45824	39.9	0
74	45824	40	0
74	45824	40.1	0
74	45824	40.2	0
74	45824	40.3	0
74	45824	40.4	0
74	45824	40.5	0
74	45824	40.6	0
74	45824	40.7	0
74	45824	40.8	0
74	45824	40.9	0
74	45824	41	0
74	45824	41.1	0
74	45824	41.2	0
74	45824	41.3	0
74	45824	41.4	0
74	45824	41.5	0
74	45824	41.6	0
74	45824	41.7	0
74	45824	41.8	0
74	45824	41.9	0
74	45824	42	0
74	45824	42.1	0
74	45824	42.2	0
74	45824	42.3	0
74	45824	42.4	0
74	45824	42.5	0
74	45824	42.6	0
74	45824	42.7	0
74	45824	42.8	0
74	45824	42.9	0
74	45824	43	0
74	45824	43.1	0
74	45824	43.2	0
74	45824	43.3	0
74	45824	43.4	0
74	45824	43.5	0
74	45824	43.6	0
74	45824	43.7	0
74	45824	43.8	0
74	45824	43.9	0
74	45824	44	0
74	45824	44.1	0
74	45824	44.2	0
74	45824	44.3	0
74	45824	44.4	0
74	45824	44.5	0
74	45824	44.6	0
74	45824	44.7	0
74	45824	44.8	0
74	45824	44.9	0
74	45824	45	0
74	45824	45.1	0
74	45824	45.2	0
74	45824	45.3	0
74	45824	45.4	0
74	45824	45.5	0
74	45824	45.6	0
74	45824	45.7	0
74	45824	45.8	0
74	45824	45.9	0
74	45824	46	0
74	45824	46.1	0
74	45824	46.2	0
74	45824	46.3	0
74	45824	46.4	0
74	45824	46.5	0
74	45824	46.6	0
74	45824	46.7	0
74	45824	46.8	0
74	45824	46.9	0
74	45824	47	0
74	45824	47.1	0
74	45824	47.2	0
74	45824	47.3	0
74	45824	47.4	0
74	45824	47.5	0
74	45824	47.6	0
74	45824	47.7	0
74	45824	47.8	0
74	45824	47.9	0
74	45824	48	0
74	45824	48.1	0
74	45824	48.2	0
74	45824	48.3	0
74	45824	48.4	0
74	45824	48.5	0
74	45824	48.6	0
74	45824	48.7	0
74	45824	48.8	0
74	45824	48.9	0
74	45824	49	0
74	45824	49.1	0
74	45824	49.2	0
74	45824	49.3	0
74	45824	49.4	0
74	45824	49.5	0
74	45824	49.6	0
74	45824	49.7	0
74	45824	49.8	0
74	45824	49.9	0
74	45824	50	0
74	45824	50.1	0
74	45824	50.2	0
74	45824	50.3	0
74	45824	50.4	0
74	45824	50.5	0
74	45824	50.6	0
74	45824	50.7	0
74	45824	50.8	0
74	45824	50.9	0
74	45824	51	0
74	45824	51.1	0
74	45824	51.2	0
74	45824	51.3	0
74	45824	51.4	0
74	45824	51.5	0
74	45824	51.6	0
74	45824	51.7	0
74	45824	51.8	0
74	45824	51.9	0
74	45824	52	0
74	45824	52.1	0
74	45824	52.2	0
74	45824	52.3	0
74	45824	52.4	0
74	45824	52.5	0
74	45824	52.6	0
74	45824	52.7	0
74	45824	52.8	0
74	45824	52.9	0
74	45824	53	0
74	45824	53.1	0
74	45824	53.2	0
74	45824	53.3	0
74	45824	53.4	0
74	45824	53.5	0
74	45824	53.6	0
74	45824	53.7	0
74	45824	53.8	0
74	45824	53.9	0
74	45824	54	0
74	45824	54.1	0
74	45824	54.2	0
74	45824	54.3	0
74	45824	54.4	0
74	45824	54.5	0
74	45824	54.6	0
74	45824	54.7	0
74	45824	54.8	0
74	45824	54.9	0
74	45824	55	0
74	45824	55.1	0
74	45824	55.2	0
74	45824	55.3	0
74	45824	55.4	0
74	45824	55.5	0
74	45824	55.6	0
74	45824	55.7	0
74	45824	55.8	0
74	45824	55.9	0
74	45824	56	0
74	45824	56.1	0
74	45824	56.2	0
74	45824	56.3	0
74	45824	56.4	0
74	45824	56.5	0
74	45824	56.6	0
74	45824	56.7	0
74	45824	56.8	0
74	45824	56.9	0
74	45824	57	0
74	45824	57.1	0
74	45824	57.2	0
74	45824	57.3	0
74	45824	57.4	0
74	45824	57.5	0
74	45824	57.6	0
74	45824	57.7	0
74	45824	57.8	0
74	45824	57.9	0
74	45824	58	0
74	45824	58.1	0
74	45824	58.2	0
74	45824	58.3	0
74	45824	58.4	0
74	45824	58.5	0
74	45824	58.6	0
74	45824	58.7	0
74	45824	58.8	0
74	45824	58.9	0
74	45824	59	0
74	45824	59.1	0
74	45824	59.2	0
74	45824	59.3	0
74	45824	59.4	0
74	45824	59.5	0
74	45824	59.6	0
74	45824	59.7	0
74	45824	59.8	0
74	45824	59.9	0
74	45824	60	0
74	45824	60.1	0
74	45824	60.2	0
74	45824	60.3	0
74	45824	60.4	0
74	45824	60.5	0
74	45824	60.6	0
74	45824	60.7	0
74	45824	60.8	0
74	45824	60.9	0
74	45824	61	0
74	45824	61.1	0
74	45824	61.2	0
74	45824	61.3	0
74	45824	61.4	0
74	45824	61.5	0
74	45824	61.6	0
74	45824	61.7	0
74	45824	61.8	0
74	45824	61.9	0
74	45824	62	0
74	45824	62.1	0
74	45824	62.2	0
74	45824	62.3	0
74	45824	62.4	0
74	45824	62.5	0
74	45824	62.6	0
74	45824	62.7	0
74	45824	62.8	0
74	45824	62.9	0
74	45824	63	0
74	45824	63.1	0
74	45824	63.2	0
74	45824	63.3	0
74	45824	63.4	0
74	45824	63.5	0
74	45824	63.6	0
74	45824	63.7	0
74	45824	63.8	0
74	45824	63.9	0
74	45824	64	0
74	45824	64.1	0
74	45824	64.2	0
74	45824	64.3	0
74	45824	64.4	0
74	45824	64.5	0
74	45824	64.6	0
74	45824	64.7	0
74	45824	64.8	0
74	45824	64.9	0
74	45824	65	0
74	45824	65.1	0
74	45824	65.2	0
74	45824	65.3	0
74	45824	65.4	0
74	45824	65.5	0
74	45824	65.6	0
74	45824	65.7	0
74	45824	65.8	0
74	45824	65.9	0
74	45824	66	0
74	45824	66.1	0
74	45824	66.2	0
74	45824	66.3	0
74	45824	66.4	0
74	45824	66.5	0
74	45824	66.6	0
74	45824	66.7	0
74	45824	66.8	0
74	45824	66.9	0
74	45824	67	0
74	45824	67.1	0
74	45824	67.2	0
74	45824	67.3	0
74	45824	67.4	0
74	45824	67.5	0
74	45824	67.6	0
74	45824	67.7	0
74	45824	67.8	0
74	45824	67.9	0
74	45824	68	0
74	45824	68.1	0
74	45824	68.2	0
74	45824	68.3	0
74	45824	68.4	0
74	45824	68.5	0
74	45824	68.6	0
74	45824	68.7	0
74	45824	68.8	0
74	45824	68.9	0
74	45824	69	0
74	45824	69.1	0
74	45824	69.2	0
74	45824	69.3	0
74	45824	69.4	0
74	45824	69.5	0
74	45824	69.6	0
74	45824	69.7	0
74	45824	69.8	0
74	45824	69.9	0
74	45824	70	0
74	45824	70.1	0
74	45824	70.2	0
74	45824	70.3	0
74	45824	70.4	0
74	45824	70.5	0
74	45824	70.6	0
74	45824	70.7	0
74	45824	70.8	0
74	45824	70.9	0
74	45824	71	0
74	45824	71.1	0
74	45824	71.2	0
74	45824	71.3	0
74	45824	71.4	0
74	45824	71.5	0
74	45824	71.6	0
74	45824	71.7	0
74	45824	71.8	0
74	45824	71.9	0
74	45824	72	0
74	45824	72.1	0
74	45824	72.2	0
74	45824	72.3	0
74	45824	72.4	0
74	45824	72.5	0
74	45824	72.6	0
74	45824	72.7	0
74	45824	72.8	0
74	45824	72.9	0
74	45824	73	0
74	45824	73.1	0
74	45824	73.2	0
74	45824	73.3	0
74	45824	73.4	0
74	45824	73.5	0
74	45824	73.6	0
74	45824	73.7	0
74	45824	73.8	0
74	45824	73.9	0
74	45824	74	0
74	45824	74.1	0
74	45824	74.2	0
74	45824	74.3	0
74	45824	74.4	0
74	45824	74.5	0
74	45824	74.6	0
74	45824	74.7	0
74	45824	74.8	0
74	45824	74.9	0
74	45824	75	0
74	45824	75.1	0
74	45824	75.2	0
74	45824	75.3	0
74	45824	75.4	0
74	45824	75.5	0
74	45824	75.6	0
74	45824	75.7	0
74	45824	75.8	0
74	45824	75.9	0
74	45824	76	0
74	45824	76.1	0
74	45824	76.2	0
74	45824	76.3	0
74	45824	76.4	0
74	45824	76.5	0
74	45824	76.6	0
74	45824	76.7	0
74	45824	76.8	0
74	45824	76.9	0
74	45824	77	0
74	45824	77.1	0
74	45824	77.2	0
74	45824	77.3	0
74	45824	77.4	0
74	45824	77.5	0
74	45824	77.6	0
74	45824	77.7	0
74	45824	77.8	0
74	45824	77.9	0
74	45824	78	0
74	45824	78.1	0
74	45824	78.2	0
74	45824	78.3	0
74	45824	78.4	0
74	45824	78.5	0
74	45824	78.6	0
74	45824	78.7	0
74	45824	78.8	0
74	45824	78.9	0
74	45824	79	0
74	45824	79.1	0
74	45824	79.2	0
74	45824	79.3	0
74	45824	79.4	0
74	45824	79.5	0
74	45824	79.6	0
74	45824	79.7	0
74	45824	79.8	0
74	45824	79.9	0
74	45824	80	0
74	45824	80.1	0
74	45824	80.2	0
74	45824	80.3	0
74	45824	80.4	0
74	45824	80.5	0
74	45824	80.6	0
74	45824	80.7	0
74	45824	80.8	0
74	45824	80.9	0
74	45824	81	0
74	45824	81.1	0
74	45824	81.2	0
74	45824	81.3	0
74	45824	81.4	0
74	45824	81.5	0
74	45824	81.6	0
74	45824	81.7	0
74	45824	81.8	0
74	45824	81.9	0
74	45824	82	0
74	45824	82.1	0
74	45824	82.2	0
74	45824	82.3	0
74	45824	82.4	0
74	45824	82.5	0
74	45824	82.6	0
74	45824	82.7	0
74	45824	82.8	0
74	45824	82.9	0
74	45824	83	0
74	45824	83.1	0
74	45824	83.2	0
74	45824	83.3	0
74	45824	83.4	0
74	45824	83.5	0
74	45824	83.6	0
74	45824	83.7	0
74	45824	83.8	0
74	45824	83.9	0
74	45824	84	0
74	45824	84.1	0
74	45824	84.2	0
74	45824	84.3	0
74	45824	84.4	0
74	45824	84.5	0
74	45824	84.6	0
74	45824	84.604134	0

