version 3
run Comunic-2-20240520-09:27:54-13708
attr configname Comunic
attr datetime 20240520-09:27:54
attr datetimef 20240520-092754
attr experiment Comunic
attr inifile omnetpp.ini
attr iterationvars "$pathlosstype=\"TwoRayNewModel\""
attr iterationvarsd pathlosstype=TwoRayNewModel
attr iterationvarsf pathlosstype=TwoRayNewModel-
attr measurement "$pathlosstype=\"TwoRayNewModel\""
attr network Network
attr processid 13708
attr repetition 0
attr replication #0
attr resultdir results
attr runnumber 2
attr seedset 2
itervar pathlosstype "\"TwoRayNewModel\""
config image-path ../../omnetpp-6.0.3/samples/inet4.5/images
config network Network
config **.bitrate 1Mbps
config *.*.wlan[*].mac.dcf.channelAccess.contention.initialChannelBusy false
config **.configurator.config "xmldoc(\"configurator.xml\")"
config *.source.app[0].typename UdpSink
config *.source.app[*].localPort 1000
config *.*.numApps 1
config *.*.app[0].typename UdpBasicApp
config *.*.app[*].destAddresses "\"source\""
config *.*.app[*].destPort 1000
config *.*.app[*].localPort 1000
config *.*.app[*].messageLength 1000Byte
config *.*.app[*].sendInterval 100ms
config *.*.app[*].startTime 0ms
config *.destination.mobility.typename StationaryMobility
config *.destination.mobility.mobilityStateChanged.vector-recording true
config *.destination.mobility.record.vector-recording true
config *.destination.mobility.initialX 100m
config *.destination.mobility.initialY 100m
config *.destination.mobility.initialZ 0.15m
config *.source.mobility.typename LinearMobility
config *.source.mobility.initialX 100m
config *.source.mobility.initialY 100m
config *.source.mobility.initialZ 5m
config *.source.mobility.initialMovementHeading 0deg
config *.source.mobility.initialMovementElevation 0deg
config *.source.mobility.speed 1mps
config *.*.wlan[*].radio.transmitter.power 6dBm
config *.*.wlan[*].radio.centerFrequency 2.400937GHz
config *.*.wlan[*].radio.*.sensitivity -85dBm
config *.*.wlan[*].radio.antenna.typename DipoleAntenna
config *.*.wlan[*].radio.antenna.length 0.05m
config *.*.wlan[*].radio.antenna.maxGain "1.97 dB"
config *.*.wlan[*].radio.antenna.minGain "-90 dB"
config *.*.wlan[*].radio.antenna.lambda 0.125437811m
config *.*.wlan[*].radio.antenna.wireAxis "\"x\""
config *.radioMedium.backgroundNoise.typename IsotropicScalarBackgroundNoise
config *.radioMedium.backgroundNoise.power "-150 dBm"
config *.radioMedium.pathLoss.typename TwoRayNewModel
config *.radioMedium.recordCommunicationLog true
config *.visualizer.*.radioVisualizer.displayRadios true
config *.visualizer.*.radioVisualizer.displayAntennaLobes true
config *.visualizer.*.mediumVisualizer.signalPropagationAnimationSpeed 0.000001
config *.visualizer.*.mediumVisualizer.signalTransmissionAnimationSpeed 0.0001
config *.visualizer.*.mediumVisualizer.displaySignals true
config *.visualizer.*.mediumVisualizer.displaySignalDepartures true
config *.visualizer.*.mediumVisualizer.displaySignalArrivals true
config record-eventlog true
config **.arp.typename GlobalArp
config *.visualizer.osgVisualizer.typename IntegratedOsgVisualizer
config *.visualizer.osgVisualizer.sceneVisualizer.typename SceneOsgEarthVisualizer
config *.visualizer.osgVisualizer.sceneVisualizer.mapFile "\"map.earth\""
config *.visualizer.osgVisualizer.sceneVisualizer.sceneImageSize 10000m
config *.visualizer.osgVisualizer.sceneVisualizer.axisLength 500m
config *.visualizer.osgVisualizer.sceneVisualizer.sceneMinX -200m
config *.visualizer.osgVisualizer.sceneVisualizer.sceneMinY -200m
config *.visualizer.osgVisualizer.sceneVisualizer.sceneMinZ 0m
config *.visualizer.osgVisualizer.sceneVisualizer.sceneMaxX 5000m
config *.visualizer.osgVisualizer.sceneVisualizer.sceneMaxY 5000m
config *.visualizer.osgVisualizer.sceneVisualizer.sceneMaxZ 5000m
config *.visualizer.osgVisualizer.networkNodeVisualizer.displayModuleName true
config **.constraintAreaMinX -5000m
config **.constraintAreaMinY -5000m
config **.constraintAreaMinZ -100m
config **.constraintAreaMaxX 5000m
config **.constraintAreaMaxY 5000m
config **.constraintAreaMaxZ 5000m
config *.coordinateSystem.sceneLongitude -43.270694deg
config *.coordinateSystem.sceneLatitude -22.825083deg
config *.coordinateSystem.sceneHeading 90deg
config *.physicalEnvironment.ground.typename FlatGround
config *.source.osgModel "\"3d/drone.ive.10.scale.0,0,90.rot\""
config **.mobility.initFromDisplayString false

par Network.source.radioIn[0].channel typename "\"ned.IdealChannel\""
par Network.source.mobility typename "\"inet.mobility.single.LinearMobility\""
par Network.source.mobility subjectModule "\"^\""
par Network.source.mobility coordinateSystemModule "\"\""
par Network.source.mobility displayStringTextFormat "\"p: %p\\nv: %v\""
attr mutable ""
par Network.source.mobility updateDisplayString true
par Network.source.mobility constraintAreaMinX -5000m
attr unit m
par Network.source.mobility constraintAreaMinY -5000m
attr unit m
par Network.source.mobility constraintAreaMinZ -100m
attr unit m
par Network.source.mobility constraintAreaMaxX 5000m
attr unit m
par Network.source.mobility constraintAreaMaxY 5000m
attr unit m
par Network.source.mobility constraintAreaMaxZ 5000m
attr unit m
par Network.source.mobility updateInterval 0.1s
attr unit s
par Network.source.mobility faceForward true
par Network.source.mobility initialX 100m
attr unit m
par Network.source.mobility initialY 100m
attr unit m
par Network.source.mobility initialZ 5m
attr unit m
par Network.source.mobility initFromDisplayString false
par Network.source.mobility speed 1mps
attr unit mps
par Network.source.mobility initialMovementHeading 0deg
attr unit deg
par Network.source.mobility initialMovementElevation 0deg
attr unit deg
par Network.source.interfaceTable typename "\"inet.networklayer.common.InterfaceTable\""
par Network.source.interfaceTable displayAddresses false
par Network.source.cb typename "\"inet.common.MessageDispatcher\""
par Network.source.cb displayStringTextFormat "\"processed %p pk (%l)\""
par Network.source.cb forwardServiceRegistration true
par Network.source.cb forwardProtocolRegistration true
par Network.source.bl typename "\"inet.common.MessageDispatcher\""
par Network.source.bl displayStringTextFormat "\"processed %p pk (%l)\""
par Network.source.bl forwardServiceRegistration true
par Network.source.bl forwardProtocolRegistration true
par Network.source.li typename "\"inet.common.MessageDispatcher\""
par Network.source.li displayStringTextFormat "\"processed %p pk (%l)\""
par Network.source.li forwardServiceRegistration true
par Network.source.li forwardProtocolRegistration true
par Network.source.lo[0].upperLayerIn.channel typename "\"ned.IdealChannel\""
par Network.source.lo[0].lo.upperLayerOut.channel typename "\"ned.IdealChannel\""
par Network.source.lo[0].lo typename "\"inet.linklayer.loopback.Loopback\""
par Network.source.lo[0].lo interfaceTableModule "\"Network.source.interfaceTable\""
par Network.source.lo[0].lo mtu 4470B
attr unit B
scalar Network.source.lo[0].lo rcvdPkFromHl:count 0
attr interpolationmode none
attr recordingmode count
attr source packetReceivedFromUpper
attr title "packets received from higher layer, count"
scalar Network.source.lo[0].lo rcvdPkFromHl:sum(packetBytes) 0
attr interpolationmode none
attr recordingmode sum(packetBytes)
attr source packetReceivedFromUpper
attr title "packets received from higher layer, sum(packetBytes)"
scalar Network.source.lo[0].lo passedUpPk:count 0
attr interpolationmode none
attr recordingmode count
attr source packetSentToUpper
attr title "packets passed to higher layer, count"
scalar Network.source.lo[0].lo passedUpPk:sum(packetBytes) 0
attr interpolationmode none
attr recordingmode sum(packetBytes)
attr source packetSentToUpper
attr title "packets passed to higher layer, sum(packetBytes)"
par Network.source.lo[0] typename "\"inet.linklayer.loopback.LoopbackInterface\""
par Network.source.lo[0] displayStringTextFormat "\"%a (%i)\\n%m\""
par Network.source.lo[0] recordPcap false
par Network.source.lo[0] numPcapRecorders 0
par Network.source.lo[0] interfaceTableModule "\"Network.source.interfaceTable\""
scalar Network.source.lo[0] packetDropInterfaceDown:count 0
attr interpolationmode none
attr recordingmode count
attr source packetDropReasonIsInterfaceDown(packetDropped)
attr title "packet drops: interface down, count"
scalar Network.source.lo[0] packetDropInterfaceDown:sum(packetBytes) 0
attr interpolationmode none
attr recordingmode sum(packetBytes)
attr source packetDropReasonIsInterfaceDown(packetDropped)
attr title "packet drops: interface down, sum(packetBytes)"
scalar Network.source.lo[0] packetDropNoCarrier:count 0
attr interpolationmode none
attr recordingmode count
attr source packetDropReasonIsNoCarrier(packetDropped)
attr title "packet drops: no carrier, count"
scalar Network.source.lo[0] packetDropNoCarrier:sum(packetBytes) 0
attr interpolationmode none
attr recordingmode sum(packetBytes)
attr source packetDropReasonIsNoCarrier(packetDropped)
attr title "packet drops: no carrier, sum(packetBytes)"
par Network.source.wlan[0].radioIn.channel typename "\"ned.IdealChannel\""
par Network.source.wlan[0].llc.upperLayerOut.channel typename "\"ned.IdealChannel\""
par Network.source.wlan[0].upperLayerIn.channel typename "\"ned.IdealChannel\""
par Network.source.wlan[0].mib typename "\"inet.linklayer.ieee80211.mib.Ieee80211Mib\""
par Network.source.wlan[0].llc typename "\"inet.linklayer.ieee80211.llc.Ieee80211LlcLpd\""
par Network.source.wlan[0].llc registerProtocol false
par Network.source.wlan[0].mgmt typename "\"inet.linklayer.ieee80211.mgmt.Ieee80211MgmtAdhoc\""
par Network.source.wlan[0].mgmt mibModule "\"Network.source.wlan[0].mib\""
par Network.source.wlan[0].mgmt macModule "\"Network.source.wlan[0].mac\""
par Network.source.wlan[0].mgmt interfaceTableModule "\"Network.source.interfaceTable\""
par Network.source.wlan[0].mac.dcf.channelAccess.pendingQueue typename "\"inet.linklayer.ieee80211.mac.queue.PendingQueue\""
par Network.source.wlan[0].mac.dcf.channelAccess.pendingQueue displayStringTextFormat "\"contains %p pk (%l) pushed %u\\npulled %o removed %r dropped %d\""
par Network.source.wlan[0].mac.dcf.channelAccess.pendingQueue packetCapacity 100
par Network.source.wlan[0].mac.dcf.channelAccess.pendingQueue dataCapacity -1b
attr unit b
par Network.source.wlan[0].mac.dcf.channelAccess.pendingQueue dropperClass "\"inet::queueing::PacketAtCollectionEndDropper\""
par Network.source.wlan[0].mac.dcf.channelAccess.pendingQueue comparatorClass "\"inet::ieee80211::MgmtOverDataComparator\""
par Network.source.wlan[0].mac.dcf.channelAccess.pendingQueue bufferModule "\"\""
scalar Network.source.wlan[0].mac.dcf.channelAccess.pendingQueue queueLength:last 0
attr autoWarmupFilter false
attr interpolationmode sample-hold
attr recordingmode last
attr source "warmup(atomic(constant0(packetPushEnded) + count(packetPushStarted) - count(packetPulled) - count(packetRemoved) - count(packetDropped)))"
attr title "queue length, last"
attr unit pk
scalar Network.source.wlan[0].mac.dcf.channelAccess.pendingQueue queueLength:max 0
attr autoWarmupFilter false
attr interpolationmode sample-hold
attr recordingmode max
attr source "warmup(atomic(constant0(packetPushEnded) + count(packetPushStarted) - count(packetPulled) - count(packetRemoved) - count(packetDropped)))"
attr title "queue length, max"
attr unit pk
scalar Network.source.wlan[0].mac.dcf.channelAccess.pendingQueue queueLength:timeavg 0
attr autoWarmupFilter false
attr interpolationmode sample-hold
attr recordingmode timeavg
attr source "warmup(atomic(constant0(packetPushEnded) + count(packetPushStarted) - count(packetPulled) - count(packetRemoved) - count(packetDropped)))"
attr title "queue length, timeavg"
attr unit pk
scalar Network.source.wlan[0].mac.dcf.channelAccess.pendingQueue queueBitLength:last 0
attr autoWarmupFilter false
attr interpolationmode sample-hold
attr recordingmode last
attr source "warmup(atomic(constant0(packetPushEnded) + sum(packetLength(packetPushStarted)) - sum(packetLength(packetPulled)) - sum(packetLength(packetRemoved)) - sum(packetLength(packetDropped))))"
attr title "queue bit length, last"
attr unit b
scalar Network.source.wlan[0].mac.dcf.channelAccess.pendingQueue queueBitLength:max 0
attr autoWarmupFilter false
attr interpolationmode sample-hold
attr recordingmode max
attr source "warmup(atomic(constant0(packetPushEnded) + sum(packetLength(packetPushStarted)) - sum(packetLength(packetPulled)) - sum(packetLength(packetRemoved)) - sum(packetLength(packetDropped))))"
attr title "queue bit length, max"
attr unit b
scalar Network.source.wlan[0].mac.dcf.channelAccess.pendingQueue queueBitLength:timeavg 0
attr autoWarmupFilter false
attr interpolationmode sample-hold
attr recordingmode timeavg
attr source "warmup(atomic(constant0(packetPushEnded) + sum(packetLength(packetPushStarted)) - sum(packetLength(packetPulled)) - sum(packetLength(packetRemoved)) - sum(packetLength(packetDropped))))"
attr title "queue bit length, timeavg"
attr unit b
statistic Network.source.wlan[0].mac.dcf.channelAccess.pendingQueue queueingTime:histogram
field count 0
field mean nan
field stddev nan
field min nan
field max nan
field sum 0
field sqrsum 0
attr interpolationmode none
attr recordingmode histogram
attr source queueingTime(packetPulled)
attr title "queueing times"
attr unit s
bin	-inf	0
bin	0	0
bin	1	0
scalar Network.source.wlan[0].mac.dcf.channelAccess.pendingQueue outgoingPackets:count 0
attr recordingmode count
attr source packetPulled
attr title "outgoing packets, count"
attr unit pk
scalar Network.source.wlan[0].mac.dcf.channelAccess.pendingQueue outgoingPacketLengths:sum 0
attr interpolationmode none
attr recordingmode sum
attr source packetLength(packetPulled)
attr title "outgoing packet lengths, sum"
attr unit b
statistic Network.source.wlan[0].mac.dcf.channelAccess.pendingQueue outgoingPacketLengths:histogram
field count 0
field mean nan
field stddev nan
field min nan
field max nan
field sum 0
field sqrsum 0
attr interpolationmode none
attr recordingmode histogram
attr source packetLength(packetPulled)
attr title "outgoing packet lengths"
attr unit b
bin	-inf	0
bin	0	0
bin	1	0
statistic Network.source.wlan[0].mac.dcf.channelAccess.pendingQueue flowQueueingTime:histogram
field count 0
field mean nan
field stddev nan
field min nan
field max nan
field sum 0
field sqrsum 0
attr interpolationmode none
attr recordingmode histogram
attr source queueingTime(demuxFlow(packetPulled))
attr title "flow queueing times"
attr unit s
bin	-inf	0
bin	0	0
bin	1	0
scalar Network.source.wlan[0].mac.dcf.channelAccess.pendingQueue incomingPackets:count 0
attr recordingmode count
attr source packetPushStarted
attr title "incoming packets, count"
attr unit pk
scalar Network.source.wlan[0].mac.dcf.channelAccess.pendingQueue incomingPacketLengths:sum 0
attr interpolationmode none
attr recordingmode sum
attr source packetLength(packetPushStarted)
attr title "incoming packet lengths, sum"
attr unit b
statistic Network.source.wlan[0].mac.dcf.channelAccess.pendingQueue incomingPacketLengths:histogram
field count 0
field mean nan
field stddev nan
field min nan
field max nan
field sum 0
field sqrsum 0
attr interpolationmode none
attr recordingmode histogram
attr source packetLength(packetPushStarted)
attr title "incoming packet lengths"
attr unit b
bin	-inf	0
bin	0	0
bin	1	0
scalar Network.source.wlan[0].mac.dcf.channelAccess.pendingQueue droppedPacketsQueueOverflow:count 0
attr interpolationmode none
attr recordingmode count
attr source packetDropReasonIsQueueOverflow(packetDropped)
attr title "dropped packets: queue overflow, count"
attr unit pk
scalar Network.source.wlan[0].mac.dcf.channelAccess.pendingQueue droppedPacketLengthsQueueOverflow:sum 0
attr interpolationmode none
attr recordingmode sum
attr source packetLength(packetDropReasonIsQueueOverflow(packetDropped))
attr title "dropped packet lengths: queue overflow, sum"
attr unit b
par Network.source.wlan[0].mac.dcf.channelAccess.inProgressFrames typename "\"inet.linklayer.ieee80211.mac.queue.InProgressFrames\""
par Network.source.wlan[0].mac.dcf.channelAccess.inProgressFrames pendingQueueModule "\"^.pendingQueue\""
par Network.source.wlan[0].mac.dcf.channelAccess.inProgressFrames originatorMacDataServiceModule "\"^.^.originatorMacDataService\""
par Network.source.wlan[0].mac.dcf.channelAccess.inProgressFrames ackHandlerModule "\"^.^.ackHandler\""
statistic Network.source.wlan[0].mac.dcf.channelAccess.inProgressFrames queueingTime:histogram
field count 0
field mean nan
field stddev nan
field min nan
field max nan
field sum 0
field sqrsum 0
attr interpolationmode none
attr recordingmode histogram
attr source queueingTime(packetDequeued)
attr title "queueing times"
bin	-inf	0
bin	0	0
bin	1	0
scalar Network.source.wlan[0].mac.dcf.channelAccess.inProgressFrames queueLength:max 0
attr autoWarmupFilter false
attr interpolationmode sample-hold
attr recordingmode max
attr source "warmup(count(packetEnqueued) - count(packetDequeued))"
attr title "queue length, max"
scalar Network.source.wlan[0].mac.dcf.channelAccess.inProgressFrames queueLength:timeavg 0
attr autoWarmupFilter false
attr interpolationmode sample-hold
attr recordingmode timeavg
attr source "warmup(count(packetEnqueued) - count(packetDequeued))"
attr title "queue length, timeavg"
par Network.source.wlan[0].mac.dcf.channelAccess.contention typename "\"inet.linklayer.ieee80211.mac.contention.Contention\""
par Network.source.wlan[0].mac.dcf.channelAccess.contention initialChannelBusy false
par Network.source.wlan[0].mac.dcf.channelAccess.contention backoffOptimization true
scalar Network.source.wlan[0].mac.dcf.channelAccess.contention stateChanged:count 1874
attr enum IDLE,DEFER,IFS_AND_BACKOFF
attr interpolationmode none
attr recordingmode count
attr title "contention state changed, count"
attr type enum
scalar Network.source.wlan[0].mac.dcf.channelAccess.contention channelAccessGranted:count 0
attr recordingmode count
attr title "channel access granted, count"
par Network.source.wlan[0].mac.dcf.channelAccess typename "\"inet.linklayer.ieee80211.mac.channelaccess.Dcaf\""
par Network.source.wlan[0].mac.dcf.channelAccess difsn -1
par Network.source.wlan[0].mac.dcf.channelAccess cwMin -1
par Network.source.wlan[0].mac.dcf.channelAccess cwMax -1
par Network.source.wlan[0].mac.dcf.channelAccess rxModule "\"^.^.rx\""
scalar Network.source.wlan[0].mac.dcf.channelAccess channelOwnershipChanged:count 0
attr interpolationmode sample-hold
attr recordingmode count
attr title "channel ownership, count"
par Network.source.wlan[0].mac.dcf.originatorMacDataService.fragmentationPolicy typename "\"inet.linklayer.ieee80211.mac.fragmentation.BasicFragmentationPolicy\""
par Network.source.wlan[0].mac.dcf.originatorMacDataService.fragmentationPolicy fragmentationThreshold 1500B
attr unit B
par Network.source.wlan[0].mac.dcf.originatorMacDataService typename "\"inet.linklayer.ieee80211.mac.originator.OriginatorMacDataService\""
scalar Network.source.wlan[0].mac.dcf.originatorMacDataService packetAggregated:count 0
attr recordingmode count
attr title "packets aggregated, count"
scalar Network.source.wlan[0].mac.dcf.originatorMacDataService packetFragmented:count 0
attr recordingmode count
attr title "packets fragmented, count"
par Network.source.wlan[0].mac.dcf.recipientMacDataService typename "\"inet.linklayer.ieee80211.mac.recipient.RecipientMacDataService\""
scalar Network.source.wlan[0].mac.dcf.recipientMacDataService packetDropDuplicateDetected:count 0
attr interpolationmode none
attr recordingmode count
attr source packetDropReasonIsDuplicateDetected(packetDropped)
attr title "packet drops: duplicate detected, count"
scalar Network.source.wlan[0].mac.dcf.recipientMacDataService packetDropDuplicateDetected:sum(packetBytes) 0
attr interpolationmode none
attr recordingmode sum(packetBytes)
attr source packetDropReasonIsDuplicateDetected(packetDropped)
attr title "packet drops: duplicate detected, sum(packetBytes)"
scalar Network.source.wlan[0].mac.dcf.recipientMacDataService packetDeaggregated:count 0
attr recordingmode count
attr title "packets deaggregated, count"
scalar Network.source.wlan[0].mac.dcf.recipientMacDataService packetDefragmented:count 234
attr recordingmode count
attr title "packets defragmented, count"
par Network.source.wlan[0].mac.dcf.rateSelection typename "\"inet.linklayer.ieee80211.mac.rateselection.RateSelection\""
par Network.source.wlan[0].mac.dcf.rateSelection rateControlModule "\"^.rateControl\""
par Network.source.wlan[0].mac.dcf.rateSelection multicastFrameBitrate -1bps
attr unit bps
par Network.source.wlan[0].mac.dcf.rateSelection responseAckFrameBitrate -1bps
attr unit bps
par Network.source.wlan[0].mac.dcf.rateSelection responseCtsFrameBitrate -1bps
attr unit bps
par Network.source.wlan[0].mac.dcf.rateSelection dataFrameBitrate 1e+06bps
attr unit bps
par Network.source.wlan[0].mac.dcf.rateSelection dataFrameBandwidth "nan Hz"
attr unit Hz
par Network.source.wlan[0].mac.dcf.rateSelection dataFrameNumSpatialStreams -1
par Network.source.wlan[0].mac.dcf.rateSelection mgmtFrameBitrate -1bps
attr unit bps
par Network.source.wlan[0].mac.dcf.rateSelection controlFrameBitrate -1bps
attr unit bps
par Network.source.wlan[0].mac.dcf.recoveryProcedure typename "\"inet.linklayer.ieee80211.mac.originator.NonQosRecoveryProcedure\""
par Network.source.wlan[0].mac.dcf.recoveryProcedure cwCalculatorModule "\"^.channelAccess\""
par Network.source.wlan[0].mac.dcf.recoveryProcedure rtsPolicyModule "\"^.rtsPolicy\""
par Network.source.wlan[0].mac.dcf.recoveryProcedure shortRetryLimit 7
par Network.source.wlan[0].mac.dcf.recoveryProcedure longRetryLimit 4
scalar Network.source.wlan[0].mac.dcf.recoveryProcedure retryLimitReached:count 0
attr recordingmode count
attr title "retry limit reached, count"
par Network.source.wlan[0].mac.dcf.originatorProtectionMechanism typename "\"inet.linklayer.ieee80211.mac.protectionmechanism.OriginatorProtectionMechanism\""
par Network.source.wlan[0].mac.dcf.originatorProtectionMechanism rateSelectionModule "\"^.rateSelection\""
par Network.source.wlan[0].mac.dcf.ackHandler typename "\"inet.linklayer.ieee80211.mac.originator.AckHandler\""
par Network.source.wlan[0].mac.dcf.originatorAckPolicy typename "\"inet.linklayer.ieee80211.mac.originator.OriginatorAckPolicy\""
par Network.source.wlan[0].mac.dcf.originatorAckPolicy rateSelectionModule "\"^.rateSelection\""
par Network.source.wlan[0].mac.dcf.originatorAckPolicy ackTimeout -1s
attr unit s
par Network.source.wlan[0].mac.dcf.recipientAckPolicy typename "\"inet.linklayer.ieee80211.mac.recipient.RecipientAckPolicy\""
par Network.source.wlan[0].mac.dcf.recipientAckPolicy rateSelectionModule "\"^.rateSelection\""
par Network.source.wlan[0].mac.dcf.rtsPolicy typename "\"inet.linklayer.ieee80211.mac.originator.RtsPolicy\""
par Network.source.wlan[0].mac.dcf.rtsPolicy rateSelectionModule "\"^.rateSelection\""
par Network.source.wlan[0].mac.dcf.rtsPolicy ctsTimeout -1s
attr unit s
par Network.source.wlan[0].mac.dcf.rtsPolicy rtsThreshold 2346B
attr unit B
par Network.source.wlan[0].mac.dcf.ctsPolicy typename "\"inet.linklayer.ieee80211.mac.recipient.CtsPolicy\""
par Network.source.wlan[0].mac.dcf.ctsPolicy rxModule "\"^.^.rx\""
par Network.source.wlan[0].mac.dcf.ctsPolicy rateSelectionModule "\"^.rateSelection\""
par Network.source.wlan[0].mac.dcf typename "\"inet.linklayer.ieee80211.mac.coordinationfunction.Dcf\""
par Network.source.wlan[0].mac.dcf rxModule "\"^.rx\""
par Network.source.wlan[0].mac.dcf txModule "\"^.tx\""
scalar Network.source.wlan[0].mac.dcf packetReceivedFromPeer:count 234
attr interpolationmode none
attr recordingmode count
attr title "packets received, count"
scalar Network.source.wlan[0].mac.dcf packetReceivedFromPeer:sum(packetBytes) 248976
attr interpolationmode none
attr recordingmode sum(packetBytes)
attr title "packets received, sum(packetBytes)"
scalar Network.source.wlan[0].mac.dcf packetReceivedFromPeerUnicast:count 234
attr interpolationmode none
attr recordingmode count
attr source ieee80211Unicast(packetReceivedFromPeer)
attr title "packets received: unicast, count"
scalar Network.source.wlan[0].mac.dcf packetReceivedFromPeerUnicast:sum(packetBytes) 248976
attr interpolationmode none
attr recordingmode sum(packetBytes)
attr source ieee80211Unicast(packetReceivedFromPeer)
attr title "packets received: unicast, sum(packetBytes)"
scalar Network.source.wlan[0].mac.dcf packetReceivedFromPeerMulticast:count 0
attr interpolationmode none
attr recordingmode count
attr source ieee80211Multicast(packetReceivedFromPeer)
attr title "packets received: multicast, count"
scalar Network.source.wlan[0].mac.dcf packetReceivedFromPeerMulticast:sum(packetBytes) 0
attr interpolationmode none
attr recordingmode sum(packetBytes)
attr source ieee80211Multicast(packetReceivedFromPeer)
attr title "packets received: multicast, sum(packetBytes)"
scalar Network.source.wlan[0].mac.dcf packetReceivedFromPeerBroadcast:count 0
attr interpolationmode none
attr recordingmode count
attr source ieee80211Broadcast(packetReceivedFromPeer)
attr title "packets received: broadcast, count"
scalar Network.source.wlan[0].mac.dcf packetReceivedFromPeerBroadcast:sum(packetBytes) 0
attr interpolationmode none
attr recordingmode sum(packetBytes)
attr source ieee80211Broadcast(packetReceivedFromPeer)
attr title "packets received: broadcast, sum(packetBytes)"
scalar Network.source.wlan[0].mac.dcf packetReceivedFromPeerWithRetry:count 0
attr interpolationmode none
attr recordingmode count
attr source ieee80211Retry(packetReceivedFromPeer)
attr title "packets received: with retry, count"
scalar Network.source.wlan[0].mac.dcf packetReceivedFromPeerWithRetry:sum(packetBytes) 0
attr interpolationmode none
attr recordingmode sum(packetBytes)
attr source ieee80211Retry(packetReceivedFromPeer)
attr title "packets received: with retry, sum(packetBytes)"
scalar Network.source.wlan[0].mac.dcf packetReceivedFromPeerWithoutRetry:count 234
attr interpolationmode none
attr recordingmode count
attr source ieee80211NotRetry(packetReceivedFromPeer)
attr title "packets received: without retry, count"
scalar Network.source.wlan[0].mac.dcf packetReceivedFromPeerWithoutRetry:sum(packetBytes) 248976
attr interpolationmode none
attr recordingmode sum(packetBytes)
attr source ieee80211NotRetry(packetReceivedFromPeer)
attr title "packets received: without retry, sum(packetBytes)"
scalar Network.source.wlan[0].mac.dcf packetSentToPeer:count 234
attr interpolationmode none
attr recordingmode count
attr title "packets sent, count"
scalar Network.source.wlan[0].mac.dcf packetSentToPeer:sum(packetBytes) 3276
attr interpolationmode none
attr recordingmode sum(packetBytes)
attr title "packets sent, sum(packetBytes)"
scalar Network.source.wlan[0].mac.dcf packetSentToPeerUnicast:count 234
attr interpolationmode none
attr recordingmode count
attr source ieee80211Unicast(packetSentToPeer)
attr title "packets sent: unicast, count"
scalar Network.source.wlan[0].mac.dcf packetSentToPeerUnicast:sum(packetBytes) 3276
attr interpolationmode none
attr recordingmode sum(packetBytes)
attr source ieee80211Unicast(packetSentToPeer)
attr title "packets sent: unicast, sum(packetBytes)"
scalar Network.source.wlan[0].mac.dcf packetSentToPeerMulticast:count 0
attr interpolationmode none
attr recordingmode count
attr source ieee80211Multicast(packetSentToPeer)
attr title "packets sent: multicast, count"
scalar Network.source.wlan[0].mac.dcf packetSentToPeerMulticast:sum(packetBytes) 0
attr interpolationmode none
attr recordingmode sum(packetBytes)
attr source ieee80211Multicast(packetSentToPeer)
attr title "packets sent: multicast, sum(packetBytes)"
scalar Network.source.wlan[0].mac.dcf packetSentToPeerBroadcast:count 0
attr interpolationmode none
attr recordingmode count
attr source ieee80211Broadcast(packetSentToPeer)
attr title "packets sent: broadcast , count"
scalar Network.source.wlan[0].mac.dcf packetSentToPeerBroadcast:sum(packetBytes) 0
attr interpolationmode none
attr recordingmode sum(packetBytes)
attr source ieee80211Broadcast(packetSentToPeer)
attr title "packets sent: broadcast , sum(packetBytes)"
scalar Network.source.wlan[0].mac.dcf packetSentToPeerWithRetry:count 0
attr interpolationmode none
attr recordingmode count
attr source ieee80211Retry(packetSentToPeer)
attr title "packets sent: with retry, count"
scalar Network.source.wlan[0].mac.dcf packetSentToPeerWithRetry:sum(packetBytes) 0
attr interpolationmode none
attr recordingmode sum(packetBytes)
attr source ieee80211Retry(packetSentToPeer)
attr title "packets sent: with retry, sum(packetBytes)"
scalar Network.source.wlan[0].mac.dcf packetSentToPeerWithoutRetry:count 234
attr interpolationmode none
attr recordingmode count
attr source ieee80211NotRetry(packetSentToPeer)
attr title "packets sent: without retry, count"
scalar Network.source.wlan[0].mac.dcf packetSentToPeerWithoutRetry:sum(packetBytes) 3276
attr interpolationmode none
attr recordingmode sum(packetBytes)
attr source ieee80211NotRetry(packetSentToPeer)
attr title "packets sent: without retry, sum(packetBytes)"
scalar Network.source.wlan[0].mac.dcf packetDrop:count 0
attr interpolationmode none
attr recordingmode count
attr source packetDropped
attr title "packet drops, count"
scalar Network.source.wlan[0].mac.dcf packetDrop:sum(packetBytes) 0
attr interpolationmode none
attr recordingmode sum(packetBytes)
attr source packetDropped
attr title "packet drops, sum(packetBytes)"
scalar Network.source.wlan[0].mac.dcf packetDropNotAddressedToUs:count 0
attr interpolationmode none
attr recordingmode count
attr source packetDropReasonIsNotAddressedToUs(packetDropped)
attr title "packet drops: not addressed to us, count"
scalar Network.source.wlan[0].mac.dcf packetDropNotAddressedToUs:sum(packetBytes) 0
attr interpolationmode none
attr recordingmode sum(packetBytes)
attr source packetDropReasonIsNotAddressedToUs(packetDropped)
attr title "packet drops: not addressed to us, sum(packetBytes)"
scalar Network.source.wlan[0].mac.dcf packetDropQueueOverflow:count 0
attr interpolationmode none
attr recordingmode count
attr source packetDropReasonIsQueueOverflow(packetDropped)
attr title "packet drops: queue overflow, count"
scalar Network.source.wlan[0].mac.dcf packetDropQueueOverflow:sum(packetBytes) 0
attr interpolationmode none
attr recordingmode sum(packetBytes)
attr source packetDropReasonIsQueueOverflow(packetDropped)
attr title "packet drops: queue overflow, sum(packetBytes)"
scalar Network.source.wlan[0].mac.dcf packetDropRetryLimitReached:count 0
attr interpolationmode none
attr recordingmode count
attr source packetDropReasonIsRetryLimitReached(packetDropped)
attr title "packet drops: retry limit reached, count"
scalar Network.source.wlan[0].mac.dcf packetDropRetryLimitReached:sum(packetBytes) 0
attr interpolationmode none
attr recordingmode sum(packetBytes)
attr source packetDropReasonIsRetryLimitReached(packetDropped)
attr title "packet drops: retry limit reached, sum(packetBytes)"
scalar Network.source.wlan[0].mac.dcf linkBroken:count 0
attr interpolationmode none
attr recordingmode count
attr title "link breaks, count"
scalar Network.source.wlan[0].mac.dcf frameSequenceFinished:count 0
attr recordingmode count
attr title "finished frame sequences, count"
statistic Network.source.wlan[0].mac.dcf frameSequenceDuration:histogram
field count 0
field mean nan
field stddev nan
field min nan
field max nan
field sum 0
field sqrsum 0
attr recordingmode histogram
attr source frameSequenceDuration(frameSequenceFinished)
attr title "frame sequence durations"
bin	-inf	0
bin	0	0
bin	1	0
statistic Network.source.wlan[0].mac.dcf frameSequenceNumPackets:histogram
field count 0
field mean nan
field stddev nan
field min nan
field max nan
field sum 0
field sqrsum 0
attr recordingmode histogram
attr source frameSequenceNumPackets(frameSequenceFinished)
attr title "frame sequences: number of packets"
bin	-inf	0
bin	0	0
bin	1	0
par Network.source.wlan[0].mac.ds typename "\"inet.linklayer.ieee80211.mac.Ds\""
par Network.source.wlan[0].mac.ds mibModule "\"Network.source.wlan[0].mib\""
par Network.source.wlan[0].mac.rx typename "\"inet.linklayer.ieee80211.mac.Rx\""
par Network.source.wlan[0].mac.tx typename "\"inet.linklayer.ieee80211.mac.Tx\""
par Network.source.wlan[0].mac.tx rxModule "\"^.rx\""
par Network.source.wlan[0].mac typename "\"inet.linklayer.ieee80211.mac.Ieee80211Mac\""
par Network.source.wlan[0].mac interfaceTableModule "\"Network.source.interfaceTable\""
par Network.source.wlan[0].mac mibModule "\"Network.source.wlan[0].mib\""
par Network.source.wlan[0].mac modeSet "\"g(mixed)\""
attr enum a,b,g(erp),g(mixed),n(mixed-2.4Ghz),p,ac
par Network.source.wlan[0].mac fcsMode "\"declared\""
attr enum declared,computed
par Network.source.wlan[0].mac initialRadioMode "\"receiver\""
attr enum off,sleep,receiver,transmitter,transceiver
par Network.source.wlan[0].mac mtu 2304B
attr unit B
par Network.source.wlan[0].mac qosStation false
scalar Network.source.wlan[0].mac packetReceivedFromLower:count 234
attr interpolationmode none
attr recordingmode count
attr title "packets received from lower layer, count"
scalar Network.source.wlan[0].mac packetReceivedFromLower:sum(packetBytes) 248976
attr interpolationmode none
attr recordingmode sum(packetBytes)
attr title "packets received from lower layer, sum(packetBytes)"
scalar Network.source.wlan[0].mac packetSentToLower:count 234
attr interpolationmode none
attr recordingmode count
attr title "packets sent to lower layer, count"
scalar Network.source.wlan[0].mac packetSentToLower:sum(packetBytes) 3276
attr interpolationmode none
attr recordingmode sum(packetBytes)
attr title "packets sent to lower layer, sum(packetBytes)"
scalar Network.source.wlan[0].mac packetReceivedFromUpper:count 0
attr interpolationmode none
attr recordingmode count
attr title "packets received from upper layer, count"
scalar Network.source.wlan[0].mac packetReceivedFromUpper:sum(packetBytes) 0
attr interpolationmode none
attr recordingmode sum(packetBytes)
attr title "packets received from upper layer, sum(packetBytes)"
scalar Network.source.wlan[0].mac packetSentToUpper:count 234
attr interpolationmode none
attr recordingmode count
attr title "packets sent to upper layer, count"
scalar Network.source.wlan[0].mac packetSentToUpper:sum(packetBytes) 242424
attr interpolationmode none
attr recordingmode sum(packetBytes)
attr title "packets sent to upper layer, sum(packetBytes)"
scalar Network.source.wlan[0].mac packetDrop:count 0
attr interpolationmode none
attr recordingmode count
attr source packetDropped
attr title "packet drops, count"
scalar Network.source.wlan[0].mac packetDrop:sum(packetBytes) 0
attr interpolationmode none
attr recordingmode sum(packetBytes)
attr source packetDropped
attr title "packet drops, sum(packetBytes)"
scalar Network.source.wlan[0].mac packetDropIncorrectlyReceived:count 0
attr interpolationmode none
attr recordingmode count
attr source packetDropReasonIsIncorrectlyReceived(packetDropped)
attr title "packet drops: incorrectly received, count"
scalar Network.source.wlan[0].mac packetDropIncorrectlyReceived:sum(packetBytes) 0
attr interpolationmode none
attr recordingmode sum(packetBytes)
attr source packetDropReasonIsIncorrectlyReceived(packetDropped)
attr title "packet drops: incorrectly received, sum(packetBytes)"
scalar Network.source.wlan[0].mac packetDropNotAddressedToUs:count 0
attr interpolationmode none
attr recordingmode count
attr source packetDropReasonIsNotAddressedToUs(packetDropped)
attr title "packet drops: not addressed to us, count"
scalar Network.source.wlan[0].mac packetDropNotAddressedToUs:sum(packetBytes) 0
attr interpolationmode none
attr recordingmode sum(packetBytes)
attr source packetDropReasonIsNotAddressedToUs(packetDropped)
attr title "packet drops: not addressed to us, sum(packetBytes)"
scalar Network.source.wlan[0].mac packetDropQueueOverflow:count 0
attr interpolationmode none
attr recordingmode count
attr source packetDropReasonIsQueueOverflow(packetDropped)
attr title "packet drops: queue overflow, count"
scalar Network.source.wlan[0].mac packetDropQueueOverflow:sum(packetBytes) 0
attr interpolationmode none
attr recordingmode sum(packetBytes)
attr source packetDropReasonIsQueueOverflow(packetDropped)
attr title "packet drops: queue overflow, sum(packetBytes)"
scalar Network.source.wlan[0].mac packetDropRetryLimitReached:count 0
attr interpolationmode none
attr recordingmode count
attr source packetDropReasonIsRetryLimitReached(packetDropped)
attr title "packet drops: retry limit reached, count"
scalar Network.source.wlan[0].mac packetDropRetryLimitReached:sum(packetBytes) 0
attr interpolationmode none
attr recordingmode sum(packetBytes)
attr source packetDropReasonIsRetryLimitReached(packetDropped)
attr title "packet drops: retry limit reached, sum(packetBytes)"
scalar Network.source.wlan[0].mac packetDropDuplicateDetected:count 0
attr interpolationmode none
attr recordingmode count
attr source packetDropReasonIsDuplicateDetected(packetDropped)
attr title "packet drops: duplicate detected, count"
scalar Network.source.wlan[0].mac packetDropDuplicateDetected:sum(packetBytes) 0
attr interpolationmode none
attr recordingmode sum(packetBytes)
attr source packetDropReasonIsDuplicateDetected(packetDropped)
attr title "packet drops: duplicate detected, sum(packetBytes)"
scalar Network.source.wlan[0].mac packetDropOther:count 0
attr interpolationmode none
attr recordingmode count
attr source packetDropReasonIsOther(packetDropped)
attr title "packet drops: other, count"
scalar Network.source.wlan[0].mac packetDropOther:sum(packetBytes) 0
attr interpolationmode none
attr recordingmode sum(packetBytes)
attr source packetDropReasonIsOther(packetDropped)
attr title "packet drops: other, sum(packetBytes)"
scalar Network.source.wlan[0].mac linkBroken:count 0
attr interpolationmode none
attr recordingmode count
attr title "link breaks, count"
par Network.source.wlan[0].radio.antenna typename "\"inet.physicallayer.wireless.common.antenna.DipoleAntenna\""
par Network.source.wlan[0].radio.antenna mobilityModule "\"^.^.^.mobility\""
par Network.source.wlan[0].radio.antenna numAntennas 1
par Network.source.wlan[0].radio.antenna length 0.05m
attr unit m
par Network.source.wlan[0].radio.antenna wireAxis "\"x\""
par Network.source.wlan[0].radio.transmitter typename "\"inet.physicallayer.wireless.ieee80211.packetlevel.Ieee80211ScalarTransmitter\""
par Network.source.wlan[0].radio.transmitter preambleDuration -1s
attr unit s
par Network.source.wlan[0].radio.transmitter headerLength 192b
attr unit b
par Network.source.wlan[0].radio.transmitter bitrate 1e+06bps
attr unit bps
par Network.source.wlan[0].radio.transmitter power 0.00398107W
attr unit W
par Network.source.wlan[0].radio.transmitter centerFrequency 2.40094e+09Hz
attr unit Hz
par Network.source.wlan[0].radio.transmitter bandwidth "nan Hz"
attr unit Hz
par Network.source.wlan[0].radio.transmitter codeRate 1
par Network.source.wlan[0].radio.transmitter modulation "\"BPSK\""
par Network.source.wlan[0].radio.transmitter opMode "\"g(mixed)\""
attr enum a,b,g(erp),g(mixed),n(mixed-2.4Ghz),p,ac
par Network.source.wlan[0].radio.transmitter bandName "\"2.4 GHz\""
attr enum "2.4 GHz,5 GHz,5 GHz (20 MHz),5 GHz (40 MHz),5 GHz (80 MHz),5 GHz (160 MHz),5.9 GHz"
par Network.source.wlan[0].radio.transmitter channelNumber 0
par Network.source.wlan[0].radio.receiver.errorModel typename "\"inet.physicallayer.wireless.ieee80211.packetlevel.errormodel.Ieee80211NistErrorModel\""
par Network.source.wlan[0].radio.receiver.errorModel corruptionMode "\"packet\""
attr enum packet,chunk,byte,bit
par Network.source.wlan[0].radio.receiver.errorModel snirMode "\"min\""
attr enum min,mean
par Network.source.wlan[0].radio.receiver.errorModel snirOffset 0dB
attr unit dB
par Network.source.wlan[0].radio.receiver typename "\"inet.physicallayer.wireless.ieee80211.packetlevel.Ieee80211ScalarReceiver\""
par Network.source.wlan[0].radio.receiver snirThreshold 4dB
attr unit dB
par Network.source.wlan[0].radio.receiver snirThresholdMode "\"min\""
attr enum min,mean
par Network.source.wlan[0].radio.receiver energyDetection -85dBm
attr unit dBm
par Network.source.wlan[0].radio.receiver sensitivity -85dBm
attr unit dBm
par Network.source.wlan[0].radio.receiver centerFrequency 2.40094e+09Hz
attr unit Hz
par Network.source.wlan[0].radio.receiver bandwidth 2.2e+07Hz
attr unit Hz
par Network.source.wlan[0].radio.receiver modulation "\"BPSK\""
par Network.source.wlan[0].radio.receiver opMode "\"g(mixed)\""
attr enum a,b,g(erp),g(mixed),n(mixed-2.4Ghz),p,ac
par Network.source.wlan[0].radio.receiver bandName "\"2.4 GHz\""
attr enum "2.4 GHz,5 GHz,5 GHz (20 MHz),5 GHz (40 MHz),5 GHz (80 MHz),5 GHz (160 MHz),5.9 GHz"
par Network.source.wlan[0].radio.receiver channelNumber 0
par Network.source.wlan[0].radio typename "\"inet.physicallayer.wireless.ieee80211.packetlevel.Ieee80211ScalarRadio\""
par Network.source.wlan[0].radio radioMediumModule "\"radioMedium\""
par Network.source.wlan[0].radio energySourceModule "\"\""
par Network.source.wlan[0].radio initialRadioMode "\"off\""
attr enum off,sleep,receiver,transmitter,transceiver
par Network.source.wlan[0].radio switchingTimes "\"ms 0 0 0 0 0 0 0 0 0 0 0 0 0 0 0 0 0 0 0 0 0 0 0 0 0\""
par Network.source.wlan[0].radio sendRawBytes false
par Network.source.wlan[0].radio separateTransmissionParts false
par Network.source.wlan[0].radio separateReceptionParts false
par Network.source.wlan[0].radio displayCommunicationRange false
par Network.source.wlan[0].radio displayInterferenceRange false
par Network.source.wlan[0].radio centerFrequency 2.40094e+09Hz
attr unit Hz
par Network.source.wlan[0].radio bandwidth "nan Hz"
attr unit Hz
par Network.source.wlan[0].radio signalAnalogRepresentation "\"scalar\""
attr enum scalar,dimensional
par Network.source.wlan[0].radio opMode "\"g(mixed)\""
attr enum a,b,g(erp),g(mixed),n(mixed-2.4Ghz),p,ac
par Network.source.wlan[0].radio bandName "\"2.4 GHz\""
attr enum "2.4 GHz,5 GHz,5 GHz (20 MHz),5 GHz (40 MHz),5 GHz (80 MHz),5 GHz (160 MHz),5.9 GHz"
par Network.source.wlan[0].radio channelNumber 0
par Network.source.wlan[0].radio crcMode "\"declared\""
attr enum declared,computed
statistic Network.source.wlan[0].radio minSnir:histogram
field count 234
field mean 4626370824.404
field stddev 9651659354.437
field min 3195820.0083917
field max 37253314182.529
field sum 1082570772910.5
field sqrsum 2.6713378931669e+22
attr recordingmode histogram
attr source minimumSnir(packetSentToUpper)
attr title "Min SNIR"
bin	-inf	0
bin	0	159
bin	1000000000	12
bin	2000000000	7
bin	3000000000	5
bin	4000000000	3
bin	5000000000	3
bin	6000000000	3
bin	7000000000	2
bin	8000000000	2
bin	9000000000	2
bin	10000000000	1
bin	11000000000	2
bin	12000000000	1
bin	13000000000	1
bin	14000000000	2
bin	15000000000	1
bin	16000000000	1
bin	17000000000	1
bin	18000000000	1
bin	19000000000	1
bin	20000000000	1
bin	21000000000	1
bin	22000000000	1
bin	23000000000	1
bin	24000000000	1
bin	25000000000	1
bin	26000000000	1
bin	27000000000	1
bin	28000000000	1
bin	29000000000	1
bin	30000000000	1
bin	31000000000	1
bin	32000000000	2
bin	33000000000	1
bin	34000000000	1
bin	35000000000	2
bin	36000000000	3
bin	37000000000	3
bin	38000000000	0
bin	39000000000	0
bin	40000000000	0
bin	41000000000	0
bin	42000000000	0
bin	43000000000	0
bin	44000000000	0
bin	45000000000	0
bin	46000000000	0
bin	47000000000	0
statistic Network.source.wlan[0].radio packetErrorRate:histogram
field count 234
field mean 0
field stddev 0
field min 0
field max 0
field sum 0
field sqrsum 0
attr recordingmode histogram
attr source packetErrorRate(packetSentToUpper)
attr title "Packet error rate"
bin	-inf	0
bin	-0.5	0
bin	-0.48	0
bin	-0.46	0
bin	-0.44	0
bin	-0.42	0
bin	-0.4	0
bin	-0.38	0
bin	-0.36	0
bin	-0.34	0
bin	-0.32	0
bin	-0.3	0
bin	-0.28	0
bin	-0.26	0
bin	-0.24	0
bin	-0.22	0
bin	-0.2	0
bin	-0.18	0
bin	-0.16	0
bin	-0.14	0
bin	-0.12	0
bin	-0.1	0
bin	-0.08	0
bin	-0.06	0
bin	-0.04	0
bin	-0.02	0
bin	0	234
bin	0.02	0
bin	0.04	0
bin	0.06	0
bin	0.08	0
bin	0.1	0
bin	0.12	0
bin	0.14	0
bin	0.16	0
bin	0.18	0
bin	0.2	0
bin	0.22	0
bin	0.24	0
bin	0.26	0
bin	0.28	0
bin	0.3	0
bin	0.32	0
bin	0.34	0
bin	0.36	0
bin	0.38	0
bin	0.4	0
bin	0.42	0
bin	0.44	0
bin	0.46	0
bin	0.48	0
bin	0.5	0
statistic Network.source.wlan[0].radio bitErrorRate:histogram
field count 0
field mean nan
field stddev nan
field min nan
field max nan
field sum 0
field sqrsum 0
attr recordingmode histogram
attr source bitErrorRate(packetSentToUpper)
attr title "Bit error rate"
bin	-inf	0
bin	0	0
bin	1	0
statistic Network.source.wlan[0].radio symbolErrorRate:histogram
field count 0
field mean nan
field stddev nan
field min nan
field max nan
field sum 0
field sqrsum 0
attr recordingmode histogram
attr source symbolErrorRate(packetSentToUpper)
attr title "Symbol error rate"
bin	-inf	0
bin	0	0
bin	1	0
scalar Network.source.wlan[0].radio transmissionState:count 936
attr interpolationmode sample-hold
attr recordingmode count
attr source transmissionStateChanged
attr title "Radio transmission state, count"
scalar Network.source.wlan[0].radio receptionState:count 937
attr interpolationmode sample-hold
attr recordingmode count
attr source receptionStateChanged
attr title "Radio reception state, count"
scalar Network.source.wlan[0].radio radioMode:count 471
attr interpolationmode sample-hold
attr recordingmode count
attr source radioModeChanged
attr title "Radio mode, count"
statistic Network.source.wlan[0].radio radioChannel:histogram
field count 1
field mean 0
field stddev nan
field min 0
field max 0
field sum 0
field sqrsum 0
attr interpolationmode sample-hold
attr recordingmode histogram
attr source radioChannelChanged
attr title "Radio channel"
bin	-inf	0
bin	-0.5	0
bin	-0.48	0
bin	-0.46	0
bin	-0.44	0
bin	-0.42	0
bin	-0.4	0
bin	-0.38	0
bin	-0.36	0
bin	-0.34	0
bin	-0.32	0
bin	-0.3	0
bin	-0.28	0
bin	-0.26	0
bin	-0.24	0
bin	-0.22	0
bin	-0.2	0
bin	-0.18	0
bin	-0.16	0
bin	-0.14	0
bin	-0.12	0
bin	-0.1	0
bin	-0.08	0
bin	-0.06	0
bin	-0.04	0
bin	-0.02	0
bin	0	1
bin	0.02	0
bin	0.04	0
bin	0.06	0
bin	0.08	0
bin	0.1	0
bin	0.12	0
bin	0.14	0
bin	0.16	0
bin	0.18	0
bin	0.2	0
bin	0.22	0
bin	0.24	0
bin	0.26	0
bin	0.28	0
bin	0.3	0
bin	0.32	0
bin	0.34	0
bin	0.36	0
bin	0.38	0
bin	0.4	0
bin	0.42	0
bin	0.44	0
bin	0.46	0
bin	0.48	0
bin	0.5	0
par Network.source.wlan[0] typename "\"inet.linklayer.ieee80211.Ieee80211Interface\""
par Network.source.wlan[0] displayStringTextFormat "\"%a (%i)\\n%m\""
par Network.source.wlan[0] recordPcap false
par Network.source.wlan[0] numPcapRecorders 0
par Network.source.wlan[0] interfaceTableModule "\"Network.source.interfaceTable\""
par Network.source.wlan[0] energySourceModule "\"\""
par Network.source.wlan[0] opMode "\"g(mixed)\""
attr enum a,b,g(erp),g(mixed),n(mixed-2.4Ghz),p,ac
par Network.source.wlan[0] address "\"0A-AA-00-00-00-01\""
attr mutable ""
par Network.source.wlan[0] protocol "\"\""
par Network.source.wlan[0] bitrate 1e+06bps
attr unit bps
scalar Network.source.wlan[0] packetDropInterfaceDown:count 0
attr interpolationmode none
attr recordingmode count
attr source packetDropReasonIsInterfaceDown(packetDropped)
attr title "packet drops: interface down, count"
scalar Network.source.wlan[0] packetDropInterfaceDown:sum(packetBytes) 0
attr interpolationmode none
attr recordingmode sum(packetBytes)
attr source packetDropReasonIsInterfaceDown(packetDropped)
attr title "packet drops: interface down, sum(packetBytes)"
scalar Network.source.wlan[0] packetDropNoCarrier:count 0
attr interpolationmode none
attr recordingmode count
attr source packetDropReasonIsNoCarrier(packetDropped)
attr title "packet drops: no carrier, count"
scalar Network.source.wlan[0] packetDropNoCarrier:sum(packetBytes) 0
attr interpolationmode none
attr recordingmode sum(packetBytes)
attr source packetDropReasonIsNoCarrier(packetDropped)
attr title "packet drops: no carrier, sum(packetBytes)"
par Network.source.ipv4.transportIn.channel typename "\"ned.IdealChannel\""
par Network.source.ipv4.up.out[0].channel typename "\"ned.IdealChannel\""
par Network.source.ipv4.lp.out[2].channel typename "\"ned.IdealChannel\""
par Network.source.ipv4.ifIn.channel typename "\"ned.IdealChannel\""
par Network.source.ipv4.configurator typename "\"inet.networklayer.configurator.ipv4.Ipv4NodeConfigurator\""
par Network.source.ipv4.configurator interfaceTableModule "\"Network.source.interfaceTable\""
par Network.source.ipv4.configurator routingTableModule "\"Network.source.ipv4.routingTable\""
par Network.source.ipv4.configurator networkConfiguratorModule "\"configurator\""
par Network.source.ipv4.configurator configureRoutingTable true
par Network.source.ipv4.routingTable typename "\"inet.networklayer.ipv4.Ipv4RoutingTable\""
par Network.source.ipv4.routingTable interfaceTableModule "\"Network.source.interfaceTable\""
par Network.source.ipv4.routingTable routerId "\"auto\""
par Network.source.ipv4.routingTable netmaskRoutes "\"*\""
par Network.source.ipv4.routingTable forwarding true
par Network.source.ipv4.routingTable multicastForwarding false
par Network.source.ipv4.routingTable useAdminDist false
par Network.source.ipv4.routingTable routingFile "\"\""
par Network.source.ipv4.natTable typename "\"inet.networklayer.ipv4.Ipv4NatTable\""
par Network.source.ipv4.natTable networkProtocolModule "\"^.ip\""
par Network.source.ipv4.natTable config "<config/> at content:1"
par Network.source.ipv4.up typename "\"inet.common.MessageDispatcher\""
par Network.source.ipv4.up displayStringTextFormat "\"processed %p pk (%l)\""
par Network.source.ipv4.up forwardServiceRegistration true
par Network.source.ipv4.up forwardProtocolRegistration true
par Network.source.ipv4.igmp typename "\"inet.networklayer.ipv4.Igmpv2\""
par Network.source.ipv4.igmp interfaceTableModule "\"Network.source.interfaceTable\""
par Network.source.ipv4.igmp routingTableModule "\"Network.source.ipv4.routingTable\""
par Network.source.ipv4.igmp crcMode "\"declared\""
attr enum declared,computed
par Network.source.ipv4.igmp enabled true
par Network.source.ipv4.igmp robustnessVariable 2
par Network.source.ipv4.igmp queryInterval 125s
attr unit s
par Network.source.ipv4.igmp queryResponseInterval 10s
attr unit s
par Network.source.ipv4.igmp groupMembershipInterval 260s
attr unit s
par Network.source.ipv4.igmp otherQuerierPresentInterval 255s
attr unit s
par Network.source.ipv4.igmp startupQueryInterval 31.25s
attr unit s
par Network.source.ipv4.igmp startupQueryCount 2
par Network.source.ipv4.igmp lastMemberQueryInterval 1s
attr unit s
par Network.source.ipv4.igmp lastMemberQueryCount 2
par Network.source.ipv4.igmp unsolicitedReportInterval 10s
attr unit s
par Network.source.ipv4.icmp typename "\"inet.networklayer.ipv4.Icmp\""
par Network.source.ipv4.icmp interfaceTableModule "\"Network.source.interfaceTable\""
par Network.source.ipv4.icmp routingTableModule "\"Network.source.ipv4.routingTable\""
par Network.source.ipv4.icmp crcMode "\"declared\""
attr enum declared,computed
attr mutable ""
par Network.source.ipv4.icmp quoteLength 8B
attr mutable ""
attr unit B
par Network.source.ipv4.mp typename "\"inet.common.MessageDispatcher\""
par Network.source.ipv4.mp displayStringTextFormat "\"processed %p pk (%l)\""
par Network.source.ipv4.mp forwardServiceRegistration true
par Network.source.ipv4.mp forwardProtocolRegistration true
par Network.source.ipv4.ip typename "\"inet.networklayer.ipv4.Ipv4\""
par Network.source.ipv4.ip interfaceTableModule "\"Network.source.interfaceTable\""
par Network.source.ipv4.ip routingTableModule "\"Network.source.ipv4.routingTable\""
par Network.source.ipv4.ip arpModule "\"Network.source.ipv4.arp\""
par Network.source.ipv4.ip icmpModule "\"Network.source.ipv4.icmp\""
par Network.source.ipv4.ip crcMode "\"declared\""
attr enum declared,computed
par Network.source.ipv4.ip timeToLive 32
par Network.source.ipv4.ip multicastTimeToLive 32
par Network.source.ipv4.ip fragmentTimeout 60s
attr unit s
par Network.source.ipv4.ip limitedBroadcast false
par Network.source.ipv4.ip directBroadcastInterfaces "\"\""
scalar Network.source.ipv4.ip packetDropAddressResolutionFailed:count 0
attr interpolationmode none
attr recordingmode count
attr source packetDropReasonIsAddressResolutionFailed(packetDropped)
attr title "packet drop: address resolution failed, count"
scalar Network.source.ipv4.ip packetDropAddressResolutionFailed:sum(packetBytes) 0
attr interpolationmode none
attr recordingmode sum(packetBytes)
attr source packetDropReasonIsAddressResolutionFailed(packetDropped)
attr title "packet drop: address resolution failed, sum(packetBytes)"
scalar Network.source.ipv4.ip packetDropHopLimitReached:count 0
attr interpolationmode none
attr recordingmode count
attr source packetDropReasonIsHopLimitReached(packetDropped)
attr title "packet drop: hop limit reached, count"
scalar Network.source.ipv4.ip packetDropHopLimitReached:sum(packetBytes) 0
attr interpolationmode none
attr recordingmode sum(packetBytes)
attr source packetDropReasonIsHopLimitReached(packetDropped)
attr title "packet drop: hop limit reached, sum(packetBytes)"
scalar Network.source.ipv4.ip packetDropForwardingDisabled:count 0
attr interpolationmode none
attr recordingmode count
attr source packetDropReasonIsForwardingDisabled(packetDropped)
attr title "packet drop: forwarding disabled, count"
scalar Network.source.ipv4.ip packetDropForwardingDisabled:sum(packetBytes) 0
attr interpolationmode none
attr recordingmode sum(packetBytes)
attr source packetDropReasonIsForwardingDisabled(packetDropped)
attr title "packet drop: forwarding disabled, sum(packetBytes)"
scalar Network.source.ipv4.ip packetDropNoInterfaceFound:count 0
attr interpolationmode none
attr recordingmode count
attr source packetDropReasonIsNoInterfaceFound(packetDropped)
attr title "packet drop: no interface found, count"
scalar Network.source.ipv4.ip packetDropNoInterfaceFound:sum(packetBytes) 0
attr interpolationmode none
attr recordingmode sum(packetBytes)
attr source packetDropReasonIsNoInterfaceFound(packetDropped)
attr title "packet drop: no interface found, sum(packetBytes)"
scalar Network.source.ipv4.ip packetDropNoRouteFound:count 0
attr interpolationmode none
attr recordingmode count
attr source packetDropReasonIsNoRouteFound(packetDropped)
attr title "packet drop: no route found, count"
scalar Network.source.ipv4.ip packetDropNoRouteFound:sum(packetBytes) 0
attr interpolationmode none
attr recordingmode sum(packetBytes)
attr source packetDropReasonIsNoRouteFound(packetDropped)
attr title "packet drop: no route found, sum(packetBytes)"
scalar Network.source.ipv4.ip packetDropUndefined:count 0
attr interpolationmode none
attr recordingmode count
attr source packetDropReasonIsUndefined(packetDropped)
attr title "packet drop: undefined, count"
scalar Network.source.ipv4.ip packetDropUndefined:sum(packetBytes) 0
attr interpolationmode none
attr recordingmode sum(packetBytes)
attr source packetDropReasonIsUndefined(packetDropped)
attr title "packet drop: undefined, sum(packetBytes)"
par Network.source.ipv4.arp typename "\"inet.networklayer.arp.ipv4.GlobalArp\""
par Network.source.ipv4.arp interfaceTableModule "\"Network.source.interfaceTable\""
par Network.source.ipv4.arp addressType "\"ipv4\""
attr enum ipv4,ipv6,mac,moduleid,modulepath
par Network.source.ipv4.lp typename "\"inet.common.MessageDispatcher\""
par Network.source.ipv4.lp displayStringTextFormat "\"processed %p pk (%l)\""
par Network.source.ipv4.lp forwardServiceRegistration true
par Network.source.ipv4.lp forwardProtocolRegistration true
par Network.source.ipv4 typename "\"inet.networklayer.ipv4.Ipv4NetworkLayer\""
par Network.source.ipv4 forwarding true
par Network.source.ipv4 multicastForwarding false
par Network.source.ipv4 interfaceTableModule "\"Network.source.interfaceTable\""
par Network.source.ipv4 displayStringTextFormat "\"%i\""
par Network.source.nl typename "\"inet.common.MessageDispatcher\""
par Network.source.nl displayStringTextFormat "\"processed %p pk (%l)\""
par Network.source.nl forwardServiceRegistration true
par Network.source.nl forwardProtocolRegistration true
par Network.source.udp typename "\"inet.transportlayer.udp.Udp\""
par Network.source.udp interfaceTableModule "\"Network.source.interfaceTable\""
par Network.source.udp icmpModule "\"^.ipv4.icmp\""
par Network.source.udp icmpv6Module "\"^.ipv6.icmpv6\""
par Network.source.udp crcMode "\"declared\""
attr enum disabled,declared,computed
par Network.source.udp defaultMulticastLoop true
scalar Network.source.udp packetReceived:count 234
attr interpolationmode none
attr recordingmode count
attr source packetReceived
attr title "packets received, count"
scalar Network.source.udp packetReceived:sum(packetBytes) 235872
attr interpolationmode none
attr recordingmode sum(packetBytes)
attr source packetReceived
attr title "packets received, sum(packetBytes)"
scalar Network.source.udp packetSent:count 0
attr interpolationmode none
attr recordingmode count
attr source packetSent
attr title "packets sent, count"
scalar Network.source.udp packetSent:sum(packetBytes) 0
attr interpolationmode none
attr recordingmode sum(packetBytes)
attr source packetSent
attr title "packets sent, sum(packetBytes)"
scalar Network.source.udp passedUpPk:count 234
attr interpolationmode none
attr recordingmode count
attr source packetSentToUpper
attr title "packets passed up, count"
scalar Network.source.udp droppedPkWrongPort:count 0
attr interpolationmode none
attr recordingmode count
attr source packetDropReasonIsNoPortFound(packetDropped)
attr title "packets dropped (wrong port), count"
scalar Network.source.udp droppedPkBadChecksum:count 0
attr interpolationmode none
attr recordingmode count
attr source packetDropReasonIsIncorrectlyReceived(packetDropped)
attr title "packets dropped (checksum error), count"
par Network.source.tcp typename "\"inet.transportlayer.tcp.Tcp\""
par Network.source.tcp crcMode "\"declared\""
attr enum declared,computed
par Network.source.tcp advertisedWindow 7504
par Network.source.tcp delayedAcksEnabled false
par Network.source.tcp nagleEnabled true
par Network.source.tcp limitedTransmitEnabled false
par Network.source.tcp increasedIWEnabled false
par Network.source.tcp sackSupport false
par Network.source.tcp windowScalingSupport false
par Network.source.tcp windowScalingFactor -1
par Network.source.tcp timestampSupport false
par Network.source.tcp mss 536
par Network.source.tcp msl 120s
attr unit s
par Network.source.tcp tcpAlgorithmClass "\"TcpReno\""
attr enum TcpVegas,TcpWestwood,TcpNewReno,TcpReno,TcpTahoe,TcpNoCongestionControl
par Network.source.tcp useDataNotification false
par Network.source.tcp dupthresh 3
par Network.source.tcp initialSsthresh 4294967295
par Network.source.tcp stopOperationExtraTime 0s
attr unit s
par Network.source.tcp stopOperationTimeout 2s
attr unit s
par Network.source.tcp ecnWillingness false
par Network.source.tcp dctcpGamma 0.0625
par Network.source.tn typename "\"inet.common.MessageDispatcher\""
par Network.source.tn displayStringTextFormat "\"processed %p pk (%l)\""
par Network.source.tn forwardServiceRegistration true
par Network.source.tn forwardProtocolRegistration true
par Network.source.app[0] typename "\"inet.applications.udpapp.UdpSink\""
par Network.source.app[0] interfaceTableModule "\"Network.source.interfaceTable\""
par Network.source.app[0] startTime 0s
attr unit s
par Network.source.app[0] stopTime -1s
attr unit s
par Network.source.app[0] localPort 1000
par Network.source.app[0] receiveBroadcast false
par Network.source.app[0] multicastGroup "\"\""
par Network.source.app[0] multicastSources "\"\""
par Network.source.app[0] stopOperationExtraTime -1s
attr unit s
par Network.source.app[0] stopOperationTimeout 2s
attr unit s
scalar Network.source.app[0] packetReceived:count 234
attr interpolationmode none
attr recordingmode count
attr source packetReceived
attr title "packets received, count"
scalar Network.source.app[0] packetReceived:sum(packetBytes) 234000
attr interpolationmode none
attr recordingmode sum(packetBytes)
attr source packetReceived
attr title "packets received, sum(packetBytes)"
statistic Network.source.app[0] endToEndDelay:histogram
field count 234
field mean 0.0087040435390983
field stddev 1.9635941839013e-08
field min 0.008704016178
field max 0.008704079386
field sum 2.036746188149
field sqrsum 0.017727927499831
attr interpolationmode none
attr recordingmode histogram
attr source dataAge(packetReceived)
attr title "end-to-end delay"
attr unit s
bin	-inf	0
bin	0.008704	0
bin	0.008704002	0
bin	0.008704004	0
bin	0.008704006	0
bin	0.008704008	0
bin	0.00870401	0
bin	0.008704012	0
bin	0.008704014	0
bin	0.008704016	24
bin	0.008704018	12
bin	0.00870402	9
bin	0.008704022	9
bin	0.008704024	8
bin	0.008704026	7
bin	0.008704028	7
bin	0.00870403	7
bin	0.008704032	7
bin	0.008704034	7
bin	0.008704036	7
bin	0.008704038	6
bin	0.00870404	7
bin	0.008704042	6
bin	0.008704044	7
bin	0.008704046	6
bin	0.008704048	6
bin	0.00870405	7
bin	0.008704052	6
bin	0.008704054	6
bin	0.008704056	6
bin	0.008704058	7
bin	0.00870406	6
bin	0.008704062	6
bin	0.008704064	6
bin	0.008704066	7
bin	0.008704068	6
bin	0.00870407	6
bin	0.008704072	6
bin	0.008704074	6
bin	0.008704076	6
bin	0.008704078	5
bin	0.00870408	0
bin	0.008704082	0
bin	0.008704084	0
bin	0.008704086	0
bin	0.008704088	0
bin	0.00870409	0
bin	0.008704092	0
bin	0.008704094	0
bin	0.008704096	0
par Network.source.at typename "\"inet.common.MessageDispatcher\""
par Network.source.at displayStringTextFormat "\"processed %p pk (%l)\""
par Network.source.at forwardServiceRegistration true
par Network.source.at forwardProtocolRegistration true
par Network.source typename "\"inet.node.inet.AdhocHost\""
par Network.source hasStatus false
par Network.source osgModel "\"3d/drone.ive.10.scale.0,0,90.rot\""
par Network.source osgModelColor "\"\""
par Network.source canvasImage "\"\""
par Network.source canvasImageColor "\"\""
par Network.source recordPcap false
par Network.source numPcapRecorders 0
par Network.source numLoInterfaces 1
par Network.source numWlanInterfaces 1
par Network.source numEthInterfaces 0
par Network.source numPppInterfaces 0
par Network.source numTunInterfaces 0
par Network.source numVirtInterfaces 0
par Network.source fcsMode "\"declared\""
attr enum declared,computed
par Network.source hasIpv4 true
par Network.source hasIpv6 false
par Network.source hasGn false
par Network.source forwarding true
par Network.source multicastForwarding false
par Network.source hasUdp true
par Network.source hasTcp true
par Network.source hasSctp false
par Network.source numApps 1
par Network.coordinateSystem typename "\"inet.common.geometry.common.SimpleGeographicCoordinateSystem\""
par Network.coordinateSystem sceneLatitude -22.8251deg
attr unit deg
par Network.coordinateSystem sceneLongitude -43.2707deg
attr unit deg
par Network.coordinateSystem sceneAltitude 0m
attr unit m
par Network.destination.radioIn[0].channel typename "\"ned.IdealChannel\""
par Network.destination.mobility typename "\"inet.mobility.static.StationaryMobility\""
par Network.destination.mobility subjectModule "\"^\""
par Network.destination.mobility coordinateSystemModule "\"\""
par Network.destination.mobility displayStringTextFormat "\"p: %p\\nv: %v\""
attr mutable ""
par Network.destination.mobility updateDisplayString true
par Network.destination.mobility constraintAreaMinX -5000m
attr unit m
par Network.destination.mobility constraintAreaMinY -5000m
attr unit m
par Network.destination.mobility constraintAreaMinZ -100m
attr unit m
par Network.destination.mobility constraintAreaMaxX 5000m
attr unit m
par Network.destination.mobility constraintAreaMaxY 5000m
attr unit m
par Network.destination.mobility constraintAreaMaxZ 5000m
attr unit m
par Network.destination.mobility initialX 100m
attr unit m
par Network.destination.mobility initialY 100m
attr unit m
par Network.destination.mobility initialZ 0.15m
attr unit m
par Network.destination.mobility initialLatitude "nan deg"
attr unit deg
par Network.destination.mobility initialLongitude "nan deg"
attr unit deg
par Network.destination.mobility initialAltitude 0m
attr unit m
par Network.destination.mobility initialHeading 0deg
attr unit deg
par Network.destination.mobility initialElevation 0deg
attr unit deg
par Network.destination.mobility initialBank 0deg
attr unit deg
par Network.destination.mobility initFromDisplayString false
par Network.destination.mobility updateFromDisplayString true
par Network.destination.interfaceTable typename "\"inet.networklayer.common.InterfaceTable\""
par Network.destination.interfaceTable displayAddresses false
par Network.destination.cb typename "\"inet.common.MessageDispatcher\""
par Network.destination.cb displayStringTextFormat "\"processed %p pk (%l)\""
par Network.destination.cb forwardServiceRegistration true
par Network.destination.cb forwardProtocolRegistration true
par Network.destination.bl typename "\"inet.common.MessageDispatcher\""
par Network.destination.bl displayStringTextFormat "\"processed %p pk (%l)\""
par Network.destination.bl forwardServiceRegistration true
par Network.destination.bl forwardProtocolRegistration true
par Network.destination.li typename "\"inet.common.MessageDispatcher\""
par Network.destination.li displayStringTextFormat "\"processed %p pk (%l)\""
par Network.destination.li forwardServiceRegistration true
par Network.destination.li forwardProtocolRegistration true
par Network.destination.lo[0].upperLayerIn.channel typename "\"ned.IdealChannel\""
par Network.destination.lo[0].lo.upperLayerOut.channel typename "\"ned.IdealChannel\""
par Network.destination.lo[0].lo typename "\"inet.linklayer.loopback.Loopback\""
par Network.destination.lo[0].lo interfaceTableModule "\"Network.destination.interfaceTable\""
par Network.destination.lo[0].lo mtu 4470B
attr unit B
scalar Network.destination.lo[0].lo rcvdPkFromHl:count 0
attr interpolationmode none
attr recordingmode count
attr source packetReceivedFromUpper
attr title "packets received from higher layer, count"
scalar Network.destination.lo[0].lo rcvdPkFromHl:sum(packetBytes) 0
attr interpolationmode none
attr recordingmode sum(packetBytes)
attr source packetReceivedFromUpper
attr title "packets received from higher layer, sum(packetBytes)"
scalar Network.destination.lo[0].lo passedUpPk:count 0
attr interpolationmode none
attr recordingmode count
attr source packetSentToUpper
attr title "packets passed to higher layer, count"
scalar Network.destination.lo[0].lo passedUpPk:sum(packetBytes) 0
attr interpolationmode none
attr recordingmode sum(packetBytes)
attr source packetSentToUpper
attr title "packets passed to higher layer, sum(packetBytes)"
par Network.destination.lo[0] typename "\"inet.linklayer.loopback.LoopbackInterface\""
par Network.destination.lo[0] displayStringTextFormat "\"%a (%i)\\n%m\""
par Network.destination.lo[0] recordPcap false
par Network.destination.lo[0] numPcapRecorders 0
par Network.destination.lo[0] interfaceTableModule "\"Network.destination.interfaceTable\""
scalar Network.destination.lo[0] packetDropInterfaceDown:count 0
attr interpolationmode none
attr recordingmode count
attr source packetDropReasonIsInterfaceDown(packetDropped)
attr title "packet drops: interface down, count"
scalar Network.destination.lo[0] packetDropInterfaceDown:sum(packetBytes) 0
attr interpolationmode none
attr recordingmode sum(packetBytes)
attr source packetDropReasonIsInterfaceDown(packetDropped)
attr title "packet drops: interface down, sum(packetBytes)"
scalar Network.destination.lo[0] packetDropNoCarrier:count 0
attr interpolationmode none
attr recordingmode count
attr source packetDropReasonIsNoCarrier(packetDropped)
attr title "packet drops: no carrier, count"
scalar Network.destination.lo[0] packetDropNoCarrier:sum(packetBytes) 0
attr interpolationmode none
attr recordingmode sum(packetBytes)
attr source packetDropReasonIsNoCarrier(packetDropped)
attr title "packet drops: no carrier, sum(packetBytes)"
par Network.destination.wlan[0].radioIn.channel typename "\"ned.IdealChannel\""
par Network.destination.wlan[0].llc.upperLayerOut.channel typename "\"ned.IdealChannel\""
par Network.destination.wlan[0].upperLayerIn.channel typename "\"ned.IdealChannel\""
par Network.destination.wlan[0].mib typename "\"inet.linklayer.ieee80211.mib.Ieee80211Mib\""
par Network.destination.wlan[0].llc typename "\"inet.linklayer.ieee80211.llc.Ieee80211LlcLpd\""
par Network.destination.wlan[0].llc registerProtocol false
par Network.destination.wlan[0].mgmt typename "\"inet.linklayer.ieee80211.mgmt.Ieee80211MgmtAdhoc\""
par Network.destination.wlan[0].mgmt mibModule "\"Network.destination.wlan[0].mib\""
par Network.destination.wlan[0].mgmt macModule "\"Network.destination.wlan[0].mac\""
par Network.destination.wlan[0].mgmt interfaceTableModule "\"Network.destination.interfaceTable\""
par Network.destination.wlan[0].mac.dcf.channelAccess.pendingQueue typename "\"inet.linklayer.ieee80211.mac.queue.PendingQueue\""
par Network.destination.wlan[0].mac.dcf.channelAccess.pendingQueue displayStringTextFormat "\"contains %p pk (%l) pushed %u\\npulled %o removed %r dropped %d\""
par Network.destination.wlan[0].mac.dcf.channelAccess.pendingQueue packetCapacity 100
par Network.destination.wlan[0].mac.dcf.channelAccess.pendingQueue dataCapacity -1b
attr unit b
par Network.destination.wlan[0].mac.dcf.channelAccess.pendingQueue dropperClass "\"inet::queueing::PacketAtCollectionEndDropper\""
par Network.destination.wlan[0].mac.dcf.channelAccess.pendingQueue comparatorClass "\"inet::ieee80211::MgmtOverDataComparator\""
par Network.destination.wlan[0].mac.dcf.channelAccess.pendingQueue bufferModule "\"\""
scalar Network.destination.wlan[0].mac.dcf.channelAccess.pendingQueue queueLength:last 100
attr autoWarmupFilter false
attr interpolationmode sample-hold
attr recordingmode last
attr source "warmup(atomic(constant0(packetPushEnded) + count(packetPushStarted) - count(packetPulled) - count(packetRemoved) - count(packetDropped)))"
attr title "queue length, last"
attr unit pk
scalar Network.destination.wlan[0].mac.dcf.channelAccess.pendingQueue queueLength:max 100
attr autoWarmupFilter false
attr interpolationmode sample-hold
attr recordingmode max
attr source "warmup(atomic(constant0(packetPushEnded) + count(packetPushStarted) - count(packetPulled) - count(packetRemoved) - count(packetDropped)))"
attr title "queue length, max"
attr unit pk
scalar Network.destination.wlan[0].mac.dcf.channelAccess.pendingQueue queueLength:timeavg 47.78140955562
attr autoWarmupFilter false
attr interpolationmode sample-hold
attr recordingmode timeavg
attr source "warmup(atomic(constant0(packetPushEnded) + count(packetPushStarted) - count(packetPulled) - count(packetRemoved) - count(packetDropped)))"
attr title "queue length, timeavg"
attr unit pk
scalar Network.destination.wlan[0].mac.dcf.channelAccess.pendingQueue queueBitLength:last 851200
attr autoWarmupFilter false
attr interpolationmode sample-hold
attr recordingmode last
attr source "warmup(atomic(constant0(packetPushEnded) + sum(packetLength(packetPushStarted)) - sum(packetLength(packetPulled)) - sum(packetLength(packetRemoved)) - sum(packetLength(packetDropped))))"
attr title "queue bit length, last"
attr unit b
scalar Network.destination.wlan[0].mac.dcf.channelAccess.pendingQueue queueBitLength:max 851200
attr autoWarmupFilter false
attr interpolationmode sample-hold
attr recordingmode max
attr source "warmup(atomic(constant0(packetPushEnded) + sum(packetLength(packetPushStarted)) - sum(packetLength(packetPulled)) - sum(packetLength(packetRemoved)) - sum(packetLength(packetDropped))))"
attr title "queue bit length, max"
attr unit b
scalar Network.destination.wlan[0].mac.dcf.channelAccess.pendingQueue queueBitLength:timeavg 406715.35813744
attr autoWarmupFilter false
attr interpolationmode sample-hold
attr recordingmode timeavg
attr source "warmup(atomic(constant0(packetPushEnded) + sum(packetLength(packetPushStarted)) - sum(packetLength(packetPulled)) - sum(packetLength(packetRemoved)) - sum(packetLength(packetDropped))))"
attr title "queue bit length, timeavg"
attr unit b
statistic Network.destination.wlan[0].mac.dcf.channelAccess.pendingQueue queueingTime:histogram
field count 670
field mean 4.8506104238806
field stddev 4.9789332029838
field min 0
field max 13.637952
field sum 3249.908984
field sqrsum 32348.402431263
attr interpolationmode none
attr recordingmode histogram
attr source queueingTime(packetPulled)
attr title "queueing times"
attr unit s
bin	-inf	0
bin	-0.5	0
bin	-0.34	0
bin	-0.18	0
bin	-0.02	243
bin	0.14	4
bin	0.3	6
bin	0.46	3
bin	0.62	4
bin	0.78	7
bin	0.94	4
bin	1.1	5
bin	1.26	4
bin	1.42	4
bin	1.58	5
bin	1.74	4
bin	1.9	4
bin	2.06	6
bin	2.22	5
bin	2.38	5
bin	2.54	5
bin	2.7	3
bin	2.86	4
bin	3.02	4
bin	3.18	4
bin	3.34	5
bin	3.5	3
bin	3.66	4
bin	3.82	7
bin	3.98	4
bin	4.14	4
bin	4.3	4
bin	4.46	4
bin	4.62	5
bin	4.78	6
bin	4.94	3
bin	5.1	4
bin	5.26	4
bin	5.42	7
bin	5.58	4
bin	5.74	4
bin	5.9	5
bin	6.06	6
bin	6.22	4
bin	6.38	4
bin	6.54	3
bin	6.7	3
bin	6.86	6
bin	7.02	5
bin	7.18	3
bin	7.34	4
bin	7.5	6
bin	7.66	4
bin	7.82	4
bin	7.98	5
bin	8.14	8
bin	8.3	4
bin	8.46	5
bin	8.62	3
bin	8.78	5
bin	8.94	4
bin	9.1	5
bin	9.26	5
bin	9.42	2
bin	9.58	4
bin	9.74	4
bin	9.9	5
bin	10.06	6
bin	10.22	4
bin	10.38	5
bin	10.54	3
bin	10.7	5
bin	10.86	4
bin	11.02	5
bin	11.18	4
bin	11.34	5
bin	11.5	4
bin	11.66	6
bin	11.82	5
bin	11.98	5
bin	12.14	4
bin	12.3	6
bin	12.46	4
bin	12.62	5
bin	12.78	4
bin	12.94	4
bin	13.1	5
bin	13.26	7
bin	13.42	43
bin	13.58	6
bin	13.74	0
scalar Network.destination.wlan[0].mac.dcf.channelAccess.pendingQueue outgoingPackets:count 670
attr recordingmode count
attr source packetPulled
attr title "outgoing packets, count"
attr unit pk
scalar Network.destination.wlan[0].mac.dcf.channelAccess.pendingQueue outgoingPacketLengths:sum 5703040
attr interpolationmode none
attr recordingmode sum
attr source packetLength(packetPulled)
attr title "outgoing packet lengths, sum"
attr unit b
statistic Network.destination.wlan[0].mac.dcf.channelAccess.pendingQueue outgoingPacketLengths:histogram
field count 670
field mean 8512
field stddev 0
field min 8512
field max 8512
field sum 5703040
field sqrsum 48544276480
attr interpolationmode none
attr recordingmode histogram
attr source packetLength(packetPulled)
attr title "outgoing packet lengths"
attr unit b
bin	-inf	0
bin	8511	0
bin	8512	670
bin	8513	0
statistic Network.destination.wlan[0].mac.dcf.channelAccess.pendingQueue flowQueueingTime:histogram
field count 0
field mean nan
field stddev nan
field min nan
field max nan
field sum 0
field sqrsum 0
attr interpolationmode none
attr recordingmode histogram
attr source queueingTime(demuxFlow(packetPulled))
attr title "flow queueing times"
attr unit s
bin	-inf	0
bin	0	0
bin	1	0
scalar Network.destination.wlan[0].mac.dcf.channelAccess.pendingQueue incomingPackets:count 825
attr recordingmode count
attr source packetPushStarted
attr title "incoming packets, count"
attr unit pk
scalar Network.destination.wlan[0].mac.dcf.channelAccess.pendingQueue incomingPacketLengths:sum 7022400
attr interpolationmode none
attr recordingmode sum
attr source packetLength(packetPushStarted)
attr title "incoming packet lengths, sum"
attr unit b
statistic Network.destination.wlan[0].mac.dcf.channelAccess.pendingQueue incomingPacketLengths:histogram
field count 825
field mean 8512
field stddev 0
field min 8512
field max 8512
field sum 7022400
field sqrsum 59774668800
attr interpolationmode none
attr recordingmode histogram
attr source packetLength(packetPushStarted)
attr title "incoming packet lengths"
attr unit b
bin	-inf	0
bin	8511	0
bin	8512	825
bin	8513	0
scalar Network.destination.wlan[0].mac.dcf.channelAccess.pendingQueue droppedPacketsQueueOverflow:count 55
attr interpolationmode none
attr recordingmode count
attr source packetDropReasonIsQueueOverflow(packetDropped)
attr title "dropped packets: queue overflow, count"
attr unit pk
scalar Network.destination.wlan[0].mac.dcf.channelAccess.pendingQueue droppedPacketLengthsQueueOverflow:sum 468160
attr interpolationmode none
attr recordingmode sum
attr source packetLength(packetDropReasonIsQueueOverflow(packetDropped))
attr title "dropped packet lengths: queue overflow, sum"
attr unit b
par Network.destination.wlan[0].mac.dcf.channelAccess.inProgressFrames typename "\"inet.linklayer.ieee80211.mac.queue.InProgressFrames\""
par Network.destination.wlan[0].mac.dcf.channelAccess.inProgressFrames pendingQueueModule "\"^.pendingQueue\""
par Network.destination.wlan[0].mac.dcf.channelAccess.inProgressFrames originatorMacDataServiceModule "\"^.^.originatorMacDataService\""
par Network.destination.wlan[0].mac.dcf.channelAccess.inProgressFrames ackHandlerModule "\"^.^.ackHandler\""
statistic Network.destination.wlan[0].mac.dcf.channelAccess.inProgressFrames queueingTime:histogram
field count 668
field mean 0.17168435985304
field stddev 0.12118425384148
field min 0.009018032356
field max 0.31619
field sum 114.68515238183
field sqrsum 29.484957765193
attr interpolationmode none
attr recordingmode histogram
attr source queueingTime(packetDequeued)
attr title "queueing times"
bin	-inf	0
bin	0	0
bin	0.005	234
bin	0.01	0
bin	0.015	0
bin	0.02	0
bin	0.025	0
bin	0.03	0
bin	0.035	0
bin	0.04	0
bin	0.045	0
bin	0.05	0
bin	0.055	0
bin	0.06	0
bin	0.065	0
bin	0.07	0
bin	0.075	0
bin	0.08	0
bin	0.085	0
bin	0.09	1
bin	0.095	0
bin	0.1	1
bin	0.105	0
bin	0.11	0
bin	0.115	0
bin	0.12	0
bin	0.125	0
bin	0.13	1
bin	0.135	0
bin	0.14	0
bin	0.145	0
bin	0.15	0
bin	0.155	0
bin	0.16	0
bin	0.165	1
bin	0.17	0
bin	0.175	0
bin	0.18	1
bin	0.185	0
bin	0.19	0
bin	0.195	1
bin	0.2	2
bin	0.205	3
bin	0.21	2
bin	0.215	5
bin	0.22	7
bin	0.225	11
bin	0.23	16
bin	0.235	18
bin	0.24	24
bin	0.245	29
bin	0.25	48
bin	0.255	39
bin	0.26	45
bin	0.265	35
bin	0.27	34
bin	0.275	35
bin	0.28	30
bin	0.285	10
bin	0.29	16
bin	0.295	10
bin	0.3	2
bin	0.305	3
bin	0.31	2
bin	0.315	2
bin	0.32	0
bin	0.325	0
bin	0.33	0
bin	0.335	0
bin	0.34	0
bin	0.345	0
bin	0.35	0
bin	0.355	0
bin	0.36	0
bin	0.365	0
bin	0.37	0
bin	0.375	0
bin	0.38	0
bin	0.385	0
scalar Network.destination.wlan[0].mac.dcf.channelAccess.inProgressFrames queueLength:max 2
attr autoWarmupFilter false
attr interpolationmode sample-hold
attr recordingmode max
attr source "warmup(count(packetEnqueued) - count(packetDequeued))"
attr title "queue length, max"
scalar Network.destination.wlan[0].mac.dcf.channelAccess.inProgressFrames queueLength:timeavg 1.3968580915651
attr autoWarmupFilter false
attr interpolationmode sample-hold
attr recordingmode timeavg
attr source "warmup(count(packetEnqueued) - count(packetDequeued))"
attr title "queue length, timeavg"
par Network.destination.wlan[0].mac.dcf.channelAccess.contention typename "\"inet.linklayer.ieee80211.mac.contention.Contention\""
par Network.destination.wlan[0].mac.dcf.channelAccess.contention initialChannelBusy false
par Network.destination.wlan[0].mac.dcf.channelAccess.contention backoffOptimization true
scalar Network.destination.wlan[0].mac.dcf.channelAccess.contention stateChanged:count 26230
attr enum IDLE,DEFER,IFS_AND_BACKOFF
attr interpolationmode none
attr recordingmode count
attr title "contention state changed, count"
attr type enum
scalar Network.destination.wlan[0].mac.dcf.channelAccess.contention channelAccessGranted:count 3279
attr recordingmode count
attr title "channel access granted, count"
par Network.destination.wlan[0].mac.dcf.channelAccess typename "\"inet.linklayer.ieee80211.mac.channelaccess.Dcaf\""
par Network.destination.wlan[0].mac.dcf.channelAccess difsn -1
par Network.destination.wlan[0].mac.dcf.channelAccess cwMin -1
par Network.destination.wlan[0].mac.dcf.channelAccess cwMax -1
par Network.destination.wlan[0].mac.dcf.channelAccess rxModule "\"^.^.rx\""
scalar Network.destination.wlan[0].mac.dcf.channelAccess channelOwnershipChanged:count 6557
attr interpolationmode sample-hold
attr recordingmode count
attr title "channel ownership, count"
[...]
attr mutable ""
attr unit s
par Network.visualizer.osgVisualizer.gateScheduleVisualizer currentTimePosition 50
par Network.visualizer.osgVisualizer.radioVisualizer typename "\"inet.visualizer.osg.physicallayer.RadioOsgVisualizer\""
par Network.visualizer.osgVisualizer.radioVisualizer visualizationTargetModule "\"^.^.^\""
par Network.visualizer.osgVisualizer.radioVisualizer visualizationSubjectModule "\"^.^.^\""
par Network.visualizer.osgVisualizer.radioVisualizer tags "\"\""
par Network.visualizer.osgVisualizer.radioVisualizer networkNodeVisualizerModule "\"^.networkNodeVisualizer\""
par Network.visualizer.osgVisualizer.radioVisualizer displayRadios true
par Network.visualizer.osgVisualizer.radioVisualizer displayRadioMode true
par Network.visualizer.osgVisualizer.radioVisualizer displayReceptionState true
par Network.visualizer.osgVisualizer.radioVisualizer displayTransmissionState true
par Network.visualizer.osgVisualizer.radioVisualizer displayAntennaLobes true
par Network.visualizer.osgVisualizer.radioVisualizer radioFilter "\"**\""
attr mutable ""
par Network.visualizer.osgVisualizer.radioVisualizer radioModeImages "\"block/process_vs block/timer_vs block/wrx_vs block/wtx_vs block/wrxtx_vs block/cogwheel_vs\""
par Network.visualizer.osgVisualizer.radioVisualizer receptionStateImages "\"- - misc/receiving misc/receiving\""
par Network.visualizer.osgVisualizer.radioVisualizer transmissionStateImages "\"- - misc/transmitting\""
par Network.visualizer.osgVisualizer.radioVisualizer width 16
par Network.visualizer.osgVisualizer.radioVisualizer height 16
par Network.visualizer.osgVisualizer.radioVisualizer placementHint "\"bottomRight\""
par Network.visualizer.osgVisualizer.radioVisualizer placementPriority 0
par Network.visualizer.osgVisualizer.radioVisualizer antennaLobeNormalize false
par Network.visualizer.osgVisualizer.radioVisualizer antennaLobeRelativeLabels false
par Network.visualizer.osgVisualizer.radioVisualizer antennaLobePlaneGlobal true
par Network.visualizer.osgVisualizer.radioVisualizer antennaLobePlane "\"view\""
attr enum view,xy,xz,yz
par Network.visualizer.osgVisualizer.radioVisualizer antennaLobeMode "\"logarithmic\""
attr enum logarithmic,linear
par Network.visualizer.osgVisualizer.radioVisualizer antennaLobeLogarithmicBase 10
par Network.visualizer.osgVisualizer.radioVisualizer antennaLobeLogarithmicScale 100
par Network.visualizer.osgVisualizer.radioVisualizer antennaLobeRadius 100
par Network.visualizer.osgVisualizer.radioVisualizer antennaLobeStep 10deg
attr unit deg
par Network.visualizer.osgVisualizer.radioVisualizer antennaLobeOpacity 0.25
par Network.visualizer.osgVisualizer.radioVisualizer antennaLobeLineSmooth true
par Network.visualizer.osgVisualizer.radioVisualizer antennaLobeLineColor "\"black\""
par Network.visualizer.osgVisualizer.radioVisualizer antennaLobeLineStyle "\"solid\""
par Network.visualizer.osgVisualizer.radioVisualizer antennaLobeLineWidth 1
par Network.visualizer.osgVisualizer.radioVisualizer antennaLobeFillColor "\"white\""
par Network.visualizer.osgVisualizer.physicalLinkVisualizer typename "\"inet.visualizer.osg.physicallayer.PhysicalLinkOsgVisualizer\""
par Network.visualizer.osgVisualizer.physicalLinkVisualizer visualizationTargetModule "\"^.^.^\""
par Network.visualizer.osgVisualizer.physicalLinkVisualizer visualizationSubjectModule "\"^.^.^\""
par Network.visualizer.osgVisualizer.physicalLinkVisualizer tags "\"\""
par Network.visualizer.osgVisualizer.physicalLinkVisualizer displayLinks false
par Network.visualizer.osgVisualizer.physicalLinkVisualizer activityLevel "\"service\""
attr enum service,peer,protocol
par Network.visualizer.osgVisualizer.physicalLinkVisualizer nodeFilter "\"*\""
attr mutable ""
par Network.visualizer.osgVisualizer.physicalLinkVisualizer interfaceFilter "\"*\""
attr mutable ""
par Network.visualizer.osgVisualizer.physicalLinkVisualizer packetFilter "(omnetpp::cValueHolder)holder: \"*\""
attr mutable ""
par Network.visualizer.osgVisualizer.physicalLinkVisualizer lineColor "\"olive\""
par Network.visualizer.osgVisualizer.physicalLinkVisualizer lineStyle "\"dotted\""
par Network.visualizer.osgVisualizer.physicalLinkVisualizer lineWidth 3
par Network.visualizer.osgVisualizer.physicalLinkVisualizer lineShift 16
par Network.visualizer.osgVisualizer.physicalLinkVisualizer lineShiftMode "\"normal\""
par Network.visualizer.osgVisualizer.physicalLinkVisualizer lineContactSpacing 3
par Network.visualizer.osgVisualizer.physicalLinkVisualizer lineContactMode "\"rectangular\""
attr enum circular,rectangular
par Network.visualizer.osgVisualizer.physicalLinkVisualizer labelFormat "\"%n\""
par Network.visualizer.osgVisualizer.physicalLinkVisualizer labelFont "\"<default>, 8px\""
par Network.visualizer.osgVisualizer.physicalLinkVisualizer labelColor "\"olive\""
par Network.visualizer.osgVisualizer.physicalLinkVisualizer fadeOutMode "\"realTime\""
attr enum realTime,animationTime,simulationTime
par Network.visualizer.osgVisualizer.physicalLinkVisualizer fadeOutTime 1s
attr unit s
par Network.visualizer.osgVisualizer.physicalLinkVisualizer fadeOutAnimationSpeed 0
par Network.visualizer.osgVisualizer.physicalLinkVisualizer holdAnimationTime 0s
attr unit s
par Network.visualizer.osgVisualizer.interfaceTableVisualizer typename "\"inet.visualizer.osg.linklayer.InterfaceTableOsgVisualizer\""
par Network.visualizer.osgVisualizer.interfaceTableVisualizer visualizationTargetModule "\"^.^.^\""
par Network.visualizer.osgVisualizer.interfaceTableVisualizer visualizationSubjectModule "\"^.^.^\""
par Network.visualizer.osgVisualizer.interfaceTableVisualizer tags "\"\""
par Network.visualizer.osgVisualizer.interfaceTableVisualizer networkNodeVisualizerModule "\"^.networkNodeVisualizer\""
par Network.visualizer.osgVisualizer.interfaceTableVisualizer displayInterfaceTables false
par Network.visualizer.osgVisualizer.interfaceTableVisualizer displayWiredInterfacesAtConnections true
par Network.visualizer.osgVisualizer.interfaceTableVisualizer displayBackground false
par Network.visualizer.osgVisualizer.interfaceTableVisualizer nodeFilter "\"*\""
attr mutable ""
par Network.visualizer.osgVisualizer.interfaceTableVisualizer interfaceFilter "\"not(lo*)\""
attr mutable ""
par Network.visualizer.osgVisualizer.interfaceTableVisualizer format "\"%N %\\\\%a%/%l\""
attr mutable ""
par Network.visualizer.osgVisualizer.interfaceTableVisualizer placementHint "\"top\""
par Network.visualizer.osgVisualizer.interfaceTableVisualizer placementPriority 0
par Network.visualizer.osgVisualizer.interfaceTableVisualizer font "\"<default>\""
par Network.visualizer.osgVisualizer.interfaceTableVisualizer textColor "\"#005030\""
par Network.visualizer.osgVisualizer.interfaceTableVisualizer backgroundColor "\"white\""
par Network.visualizer.osgVisualizer.interfaceTableVisualizer opacity 1
par Network.visualizer.osgVisualizer.dataLinkVisualizer typename "\"inet.visualizer.osg.linklayer.DataLinkOsgVisualizer\""
par Network.visualizer.osgVisualizer.dataLinkVisualizer visualizationTargetModule "\"^.^.^\""
par Network.visualizer.osgVisualizer.dataLinkVisualizer visualizationSubjectModule "\"^.^.^\""
par Network.visualizer.osgVisualizer.dataLinkVisualizer tags "\"\""
par Network.visualizer.osgVisualizer.dataLinkVisualizer displayLinks false
par Network.visualizer.osgVisualizer.dataLinkVisualizer activityLevel "\"service\""
attr enum service,peer,protocol
par Network.visualizer.osgVisualizer.dataLinkVisualizer nodeFilter "\"*\""
attr mutable ""
par Network.visualizer.osgVisualizer.dataLinkVisualizer interfaceFilter "\"*\""
attr mutable ""
par Network.visualizer.osgVisualizer.dataLinkVisualizer packetFilter "(omnetpp::cValueHolder)holder: \"*\""
attr mutable ""
par Network.visualizer.osgVisualizer.dataLinkVisualizer lineColor "\"darkcyan\""
par Network.visualizer.osgVisualizer.dataLinkVisualizer lineStyle "\"solid\""
par Network.visualizer.osgVisualizer.dataLinkVisualizer lineWidth 3
par Network.visualizer.osgVisualizer.dataLinkVisualizer lineShift 16
par Network.visualizer.osgVisualizer.dataLinkVisualizer lineShiftMode "\"normal\""
par Network.visualizer.osgVisualizer.dataLinkVisualizer lineContactSpacing 3
par Network.visualizer.osgVisualizer.dataLinkVisualizer lineContactMode "\"rectangular\""
attr enum circular,rectangular
par Network.visualizer.osgVisualizer.dataLinkVisualizer labelFormat "\"%n\""
par Network.visualizer.osgVisualizer.dataLinkVisualizer labelFont "\"<default>, 8px\""
par Network.visualizer.osgVisualizer.dataLinkVisualizer labelColor "\"darkcyan\""
par Network.visualizer.osgVisualizer.dataLinkVisualizer fadeOutMode "\"realTime\""
attr enum realTime,animationTime,simulationTime
par Network.visualizer.osgVisualizer.dataLinkVisualizer fadeOutTime 1s
attr unit s
par Network.visualizer.osgVisualizer.dataLinkVisualizer fadeOutAnimationSpeed 0
par Network.visualizer.osgVisualizer.dataLinkVisualizer holdAnimationTime 0s
attr unit s
par Network.visualizer.osgVisualizer.linkBreakVisualizer typename "\"inet.visualizer.osg.linklayer.LinkBreakOsgVisualizer\""
par Network.visualizer.osgVisualizer.linkBreakVisualizer visualizationTargetModule "\"^.^.^\""
par Network.visualizer.osgVisualizer.linkBreakVisualizer visualizationSubjectModule "\"^.^.^\""
par Network.visualizer.osgVisualizer.linkBreakVisualizer tags "\"\""
par Network.visualizer.osgVisualizer.linkBreakVisualizer displayLinkBreaks false
par Network.visualizer.osgVisualizer.linkBreakVisualizer nodeFilter "\"*\""
attr mutable ""
par Network.visualizer.osgVisualizer.linkBreakVisualizer interfaceFilter "\"*\""
attr mutable ""
par Network.visualizer.osgVisualizer.linkBreakVisualizer packetFilter "(omnetpp::cValueHolder)holder: \"*\""
attr mutable ""
par Network.visualizer.osgVisualizer.linkBreakVisualizer icon "\"status/stop\""
par Network.visualizer.osgVisualizer.linkBreakVisualizer iconTintAmount 0
par Network.visualizer.osgVisualizer.linkBreakVisualizer iconTintColor "\"\""
par Network.visualizer.osgVisualizer.linkBreakVisualizer fadeOutMode "\"realTime\""
attr enum realTime,animationTime,simulationTime
par Network.visualizer.osgVisualizer.linkBreakVisualizer fadeOutTime 1s
attr unit s
par Network.visualizer.osgVisualizer.linkBreakVisualizer fadeOutAnimationSpeed 0
par Network.visualizer.osgVisualizer.ieee80211Visualizer typename "\"inet.visualizer.osg.linklayer.Ieee80211OsgVisualizer\""
par Network.visualizer.osgVisualizer.ieee80211Visualizer visualizationTargetModule "\"^.^.^\""
par Network.visualizer.osgVisualizer.ieee80211Visualizer visualizationSubjectModule "\"^.^.^\""
par Network.visualizer.osgVisualizer.ieee80211Visualizer tags "\"\""
par Network.visualizer.osgVisualizer.ieee80211Visualizer networkNodeVisualizerModule "\"^.networkNodeVisualizer\""
par Network.visualizer.osgVisualizer.ieee80211Visualizer displayAssociations false
par Network.visualizer.osgVisualizer.ieee80211Visualizer nodeFilter "\"*\""
attr mutable ""
par Network.visualizer.osgVisualizer.ieee80211Visualizer interfaceFilter "\"*\""
attr mutable ""
par Network.visualizer.osgVisualizer.ieee80211Visualizer minPower -85dBm
attr unit dBm
par Network.visualizer.osgVisualizer.ieee80211Visualizer maxPower -50dBm
attr unit dBm
par Network.visualizer.osgVisualizer.ieee80211Visualizer icons "\"misc/signal_power_0 misc/signal_power_1 misc/signal_power_2 misc/signal_power_3\""
par Network.visualizer.osgVisualizer.ieee80211Visualizer iconColor "\"dark\""
attr enum light,dark
par Network.visualizer.osgVisualizer.ieee80211Visualizer labelFont "\"<default>\""
par Network.visualizer.osgVisualizer.ieee80211Visualizer labelColor "\"black\""
par Network.visualizer.osgVisualizer.ieee80211Visualizer placementHint "\"top\""
par Network.visualizer.osgVisualizer.ieee80211Visualizer placementPriority 0
par Network.visualizer.osgVisualizer.networkRouteVisualizer typename "\"inet.visualizer.osg.networklayer.NetworkRouteOsgVisualizer\""
par Network.visualizer.osgVisualizer.networkRouteVisualizer visualizationTargetModule "\"^.^.^\""
par Network.visualizer.osgVisualizer.networkRouteVisualizer visualizationSubjectModule "\"^.^.^\""
par Network.visualizer.osgVisualizer.networkRouteVisualizer tags "\"\""
par Network.visualizer.osgVisualizer.networkRouteVisualizer displayRoutes false
par Network.visualizer.osgVisualizer.networkRouteVisualizer startPathSignal "\"packetReceivedFromUpper\""
par Network.visualizer.osgVisualizer.networkRouteVisualizer extendPathSignal "\"packetReceivedFromLower\""
par Network.visualizer.osgVisualizer.networkRouteVisualizer endPathSignal "\"packetSentToUpper\""
par Network.visualizer.osgVisualizer.networkRouteVisualizer nodeFilter "\"*\""
attr mutable ""
par Network.visualizer.osgVisualizer.networkRouteVisualizer packetFilter "(omnetpp::cValueHolder)holder: \"*\""
attr mutable ""
par Network.visualizer.osgVisualizer.networkRouteVisualizer lineColor "\"dark\""
attr enum light,dark
par Network.visualizer.osgVisualizer.networkRouteVisualizer lineStyle "\"solid\""
par Network.visualizer.osgVisualizer.networkRouteVisualizer lineWidth 3
par Network.visualizer.osgVisualizer.networkRouteVisualizer lineSmooth false
par Network.visualizer.osgVisualizer.networkRouteVisualizer lineShift 16
par Network.visualizer.osgVisualizer.networkRouteVisualizer lineShiftMode "\"normal\""
par Network.visualizer.osgVisualizer.networkRouteVisualizer lineContactSpacing 3
par Network.visualizer.osgVisualizer.networkRouteVisualizer lineContactMode "\"rectangular\""
attr enum circular,rectangular
par Network.visualizer.osgVisualizer.networkRouteVisualizer labelFormat "\"%n\""
par Network.visualizer.osgVisualizer.networkRouteVisualizer labelFont "\"<default>, 8px\""
par Network.visualizer.osgVisualizer.networkRouteVisualizer labelColor "\"\""
par Network.visualizer.osgVisualizer.networkRouteVisualizer fadeOutMode "\"realTime\""
attr enum realTime,animationTime,simulationTime
par Network.visualizer.osgVisualizer.networkRouteVisualizer fadeOutTime 1s
attr unit s
par Network.visualizer.osgVisualizer.networkRouteVisualizer fadeOutAnimationSpeed 0
par Network.visualizer.osgVisualizer.routingTableVisualizer typename "\"inet.visualizer.osg.networklayer.RoutingTableOsgVisualizer\""
par Network.visualizer.osgVisualizer.routingTableVisualizer visualizationTargetModule "\"^.^.^\""
par Network.visualizer.osgVisualizer.routingTableVisualizer visualizationSubjectModule "\"^.^.^\""
par Network.visualizer.osgVisualizer.routingTableVisualizer tags "\"\""
par Network.visualizer.osgVisualizer.routingTableVisualizer displayRoutingTables false
par Network.visualizer.osgVisualizer.routingTableVisualizer displayRoutesIndividually true
par Network.visualizer.osgVisualizer.routingTableVisualizer displayLabels true
par Network.visualizer.osgVisualizer.routingTableVisualizer destinationFilter "\"*\""
attr mutable ""
par Network.visualizer.osgVisualizer.routingTableVisualizer nodeFilter "\"*\""
attr mutable ""
par Network.visualizer.osgVisualizer.routingTableVisualizer lineColor "\"black\""
par Network.visualizer.osgVisualizer.routingTableVisualizer lineStyle "\"solid\""
par Network.visualizer.osgVisualizer.routingTableVisualizer lineWidth 2
par Network.visualizer.osgVisualizer.routingTableVisualizer lineShift 16
par Network.visualizer.osgVisualizer.routingTableVisualizer lineShiftMode "\"normal\""
par Network.visualizer.osgVisualizer.routingTableVisualizer lineContactSpacing 3
par Network.visualizer.osgVisualizer.routingTableVisualizer lineContactMode "\"rectangular\""
attr enum circular,rectangular
par Network.visualizer.osgVisualizer.routingTableVisualizer labelFormat "\"%d/%m -> %g (%n)\""
attr mutable ""
par Network.visualizer.osgVisualizer.routingTableVisualizer labelFont "\"<default>, 8px\""
par Network.visualizer.osgVisualizer.routingTableVisualizer labelColor "\"black\""
par Network.visualizer.osgVisualizer.transportRouteVisualizer typename "\"inet.visualizer.osg.transportlayer.TransportRouteOsgVisualizer\""
par Network.visualizer.osgVisualizer.transportRouteVisualizer visualizationTargetModule "\"^.^.^\""
par Network.visualizer.osgVisualizer.transportRouteVisualizer visualizationSubjectModule "\"^.^.^\""
par Network.visualizer.osgVisualizer.transportRouteVisualizer tags "\"\""
par Network.visualizer.osgVisualizer.transportRouteVisualizer displayRoutes false
par Network.visualizer.osgVisualizer.transportRouteVisualizer startPathSignal "\"packetReceivedFromUpper\""
par Network.visualizer.osgVisualizer.transportRouteVisualizer extendPathSignal "\"packetReceivedFromLower\""
par Network.visualizer.osgVisualizer.transportRouteVisualizer endPathSignal "\"packetSentToUpper\""
par Network.visualizer.osgVisualizer.transportRouteVisualizer nodeFilter "\"*\""
attr mutable ""
par Network.visualizer.osgVisualizer.transportRouteVisualizer packetFilter "(omnetpp::cValueHolder)holder: \"*\""
attr mutable ""
par Network.visualizer.osgVisualizer.transportRouteVisualizer lineColor "\"dark\""
attr enum light,dark
par Network.visualizer.osgVisualizer.transportRouteVisualizer lineStyle "\"solid\""
par Network.visualizer.osgVisualizer.transportRouteVisualizer lineWidth 3
par Network.visualizer.osgVisualizer.transportRouteVisualizer lineSmooth false
par Network.visualizer.osgVisualizer.transportRouteVisualizer lineShift 16
par Network.visualizer.osgVisualizer.transportRouteVisualizer lineShiftMode "\"normal\""
par Network.visualizer.osgVisualizer.transportRouteVisualizer lineContactSpacing 3
par Network.visualizer.osgVisualizer.transportRouteVisualizer lineContactMode "\"rectangular\""
attr enum circular,rectangular
par Network.visualizer.osgVisualizer.transportRouteVisualizer labelFormat "\"%n\""
par Network.visualizer.osgVisualizer.transportRouteVisualizer labelFont "\"<default>, 8px\""
par Network.visualizer.osgVisualizer.transportRouteVisualizer labelColor "\"\""
par Network.visualizer.osgVisualizer.transportRouteVisualizer fadeOutMode "\"realTime\""
attr enum realTime,animationTime,simulationTime
par Network.visualizer.osgVisualizer.transportRouteVisualizer fadeOutTime 1s
attr unit s
par Network.visualizer.osgVisualizer.transportRouteVisualizer fadeOutAnimationSpeed 0
par Network.visualizer.osgVisualizer.transportConnectionVisualizer typename "\"inet.visualizer.osg.transportlayer.TransportConnectionOsgVisualizer\""
par Network.visualizer.osgVisualizer.transportConnectionVisualizer visualizationTargetModule "\"^.^.^\""
par Network.visualizer.osgVisualizer.transportConnectionVisualizer visualizationSubjectModule "\"^.^.^\""
par Network.visualizer.osgVisualizer.transportConnectionVisualizer tags "\"\""
par Network.visualizer.osgVisualizer.transportConnectionVisualizer networkNodeVisualizerModule "\"^.networkNodeVisualizer\""
par Network.visualizer.osgVisualizer.transportConnectionVisualizer displayTransportConnections false
par Network.visualizer.osgVisualizer.transportConnectionVisualizer sourceNodeFilter "\"*\""
attr mutable ""
par Network.visualizer.osgVisualizer.transportConnectionVisualizer sourcePortFilter "\"*\""
attr mutable ""
par Network.visualizer.osgVisualizer.transportConnectionVisualizer destinationNodeFilter "\"*\""
attr mutable ""
par Network.visualizer.osgVisualizer.transportConnectionVisualizer destinationPortFilter "\"*\""
attr mutable ""
par Network.visualizer.osgVisualizer.transportConnectionVisualizer icon "\"misc/marker_s\""
par Network.visualizer.osgVisualizer.transportConnectionVisualizer iconColor "\"dark\""
attr enum light,dark
par Network.visualizer.osgVisualizer.transportConnectionVisualizer labelFont "\"<default>\""
par Network.visualizer.osgVisualizer.transportConnectionVisualizer labelColor "\"black\""
par Network.visualizer.osgVisualizer.transportConnectionVisualizer placementHint "\"top\""
par Network.visualizer.osgVisualizer.transportConnectionVisualizer placementPriority 0
par Network.visualizer.osgVisualizer typename "\"inet.visualizer.osg.integrated.IntegratedOsgVisualizer\""
par Network.visualizer typename "\"inet.visualizer.common.IntegratedVisualizer\""
par Network typename "\"simulations.Network\""

